REMARK SMILES C[C@@H](O)[C@H]1C(=O)N2C(C(=O)[O-])=C(S[C@@H]3C[NH2+][C@H](CNS(N)(=O)=O)C3)[C@H](C)[C@H]12
REMARK SMILES IDX 14 1 15 2 16 3 17 4 24 5 13 8 12 9 4 10 5 11 27 12 6 13 7 14
REMARK SMILES IDX 25 15 8 16 26 17 2 18 1 19 3 20 9 22 10 23 11 24 18 25 19 26
REMARK SMILES IDX 20 28 22 29 23 30 21 31
REMARK H PARENT 16 6 16 7 3 21 19 27 21 32 21 33
REMARK Flexibility Score: inf
ROOT
ATOM      1  C   UNL     1       1.294  -1.130  -1.050  1.00  0.00     0.112 C 
ATOM      2  C   UNL     1       2.195  -2.101  -0.171  1.00  0.00     0.275 C 
ATOM      3  N   UNL     1       3.226  -2.234  -1.112  1.00  0.00    -0.342 N 
ATOM      4  C   UNL     1       3.791  -0.749  -1.067  1.00  0.00     0.198 C 
ATOM      5  C   UNL     1       2.365  -0.070  -1.522  1.00  0.00     0.087 C 
ATOM      6  H   UNL     1       2.872  -2.481  -2.036  1.00  0.00     0.346 HD
ATOM      7  H   UNL     1       3.906  -2.970  -0.919  1.00  0.00     0.346 HD
ENDROOT
BRANCH   1   8
ATOM      8  S   UNL     1       0.747  -0.062   0.453  1.00  0.00    -0.118 SA
BRANCH   8   9
ATOM      9  C   UNL     1      -1.034   0.080   0.240  1.00  0.00     0.016 C 
ATOM     10  C   UNL     1      -4.308  -0.375  -0.619  1.00  0.00     0.131 C 
ATOM     11  C   UNL     1      -4.387   1.101  -0.026  1.00  0.00     0.235 C 
ATOM     12  C   UNL     1      -3.305  -0.549   0.743  1.00  0.00     0.113 C 
ATOM     13  O   UNL     1      -5.341   1.811   0.317  1.00  0.00    -0.274 OA
ATOM     14  N   UNL     1      -2.999   0.937   0.406  1.00  0.00    -0.305 N 
ATOM     15  C   UNL     1      -1.932  -1.222  -0.044  1.00  0.00     0.049 C 
ATOM     16  C   UNL     1      -1.748   1.066  -0.162  1.00  0.00     0.077 C 
ATOM     17  C   UNL     1      -2.301  -0.808  -1.584  1.00  0.00     0.015 C 
BRANCH  10  18
ATOM     18  C   UNL     1      -5.754  -1.026   0.071  1.00  0.00     0.125 C 
ATOM     19  C   UNL     1      -4.983  -2.453   0.416  1.00  0.00     0.039 C 
BRANCH  18  20
ATOM     20  O   UNL     1      -5.524  -0.473   1.475  1.00  0.00    -0.393 OA
ATOM     21  H   UNL     1      -4.605  -0.637   1.740  1.00  0.00     0.210 HD
ENDBRANCH  18  20
ENDBRANCH  10  18
BRANCH  16  22
ATOM     22  C   UNL     1      -1.180   2.299  -0.731  1.00  0.00     0.089 C 
ATOM     23  O   UNL     1      -0.651   3.208  -0.090  1.00  0.00    -0.543 OA
ATOM     24  O   UNL     1      -1.589   2.530  -2.050  1.00  0.00    -0.543 OA
ENDBRANCH  16  22
ENDBRANCH   8   9
ENDBRANCH   1   8
BRANCH   4  25
ATOM     25  C   UNL     1       3.482  -0.523   0.554  1.00  0.00     0.164 C 
BRANCH  25  26
ATOM     26  N   UNL     1       4.385   0.547   0.943  1.00  0.00    -0.197 NA
ATOM     27  H   UNL     1       4.327   0.681   1.952  1.00  0.00     0.142 HD
BRANCH  26  28
ATOM     28  S   UNL     1       6.018   0.170   0.518  1.00  0.00     0.274 S 
ATOM     29  O   UNL     1       6.123   0.363  -0.955  1.00  0.00    -0.195 OA
ATOM     30  O   UNL     1       6.947   1.090   1.277  1.00  0.00    -0.195 OA
BRANCH  28  31
ATOM     31  N   UNL     1       6.460  -1.427   0.941  1.00  0.00    -0.216 NA
ATOM     32  H   UNL     1       5.858  -2.088   0.451  1.00  0.00     0.138 HD
ATOM     33  H   UNL     1       6.356  -1.553   1.947  1.00  0.00     0.138 HD
ENDBRANCH  28  31
ENDBRANCH  26  28
ENDBRANCH  25  26
ENDBRANCH   4  25
TORSDOF 9
