REMARK SMILES CCCCNc1cc(C(=O)[O-])cc(S(N)(=O)=O)c1Oc1ccccc1
REMARK SMILES IDX 5 1 4 3 3 4 2 5 1 6 6 7 7 8 18 9 8 10 13 11 12 12 19 13
REMARK SMILES IDX 20 14 21 15 25 16 22 17 24 18 23 19 9 20 10 21 11 22 14 23
REMARK SMILES IDX 16 24 17 25 15 26
REMARK H PARENT 5 2 15 27 15 28
REMARK Flexibility Score: inf
ROOT
ATOM      1  N   UNL     1       1.642  -1.137  -0.257  1.00  0.00    -0.382 N 
ATOM      2  H   UNL     1       1.957  -0.425   0.347  1.00  0.00     0.160 HD
ENDROOT
BRANCH   1   3
ATOM      3  C   UNL     1       2.634  -2.006  -0.815  1.00  0.00     0.113 C 
BRANCH   3   4
ATOM      4  C   UNL     1       3.976  -1.298  -0.660  1.00  0.00     0.021 C 
BRANCH   4   5
ATOM      5  C   UNL     1       4.670  -1.736   0.616  1.00  0.00    -0.002 C 
ATOM      6  C   UNL     1       5.866  -2.570   0.246  1.00  0.00     0.004 C 
ENDBRANCH   4   5
ENDBRANCH   3   4
ENDBRANCH   1   3
BRANCH   1   7
ATOM      7  C   UNL     1       0.251  -1.209  -0.496  1.00  0.00     0.080 A 
ATOM      8  C   UNL     1      -0.365  -2.409  -0.159  1.00  0.00     0.039 A 
ATOM      9  C   UNL     1      -0.441  -0.004  -0.466  1.00  0.00     0.170 A 
ATOM     10  C   UNL     1      -1.725  -2.451   0.122  1.00  0.00     0.001 A 
ATOM     11  C   UNL     1      -1.826  -0.121  -0.463  1.00  0.00     0.127 A 
ATOM     12  C   UNL     1      -2.459  -1.337  -0.252  1.00  0.00     0.036 A 
BRANCH   9  13
ATOM     13  O   UNL     1       0.134   1.091  -1.117  1.00  0.00    -0.454 OA
BRANCH  13  14
ATOM     14  C   UNL     1       0.724   2.155  -0.471  1.00  0.00     0.127 A 
ATOM     15  C   UNL     1       0.670   3.424  -1.041  1.00  0.00     0.047 A 
ATOM     16  C   UNL     1       1.763   1.995   0.439  1.00  0.00     0.047 A 
ATOM     17  C   UNL     1       0.927   4.478  -0.173  1.00  0.00     0.004 A 
ATOM     18  C   UNL     1       2.071   3.006   1.330  1.00  0.00     0.004 A 
ATOM     19  C   UNL     1       1.517   4.250   1.064  1.00  0.00     0.000 A 
ENDBRANCH  13  14
ENDBRANCH   9  13
BRANCH  10  20
ATOM     20  C   UNL     1      -2.311  -3.519   0.945  1.00  0.00     0.072 C 
ATOM     21  O   UNL     1      -2.078  -3.462   2.190  1.00  0.00    -0.545 OA
ATOM     22  O   UNL     1      -3.603  -3.940   0.613  1.00  0.00    -0.545 OA
ENDBRANCH  10  20
BRANCH  11  23
ATOM     23  S   UNL     1      -2.778   1.353  -0.376  1.00  0.00     0.241 S 
ATOM     24  O   UNL     1      -2.709   2.133  -1.650  1.00  0.00    -0.207 OA
ATOM     25  O   UNL     1      -4.232   0.998  -0.160  1.00  0.00    -0.207 OA
BRANCH  23  26
ATOM     26  N   UNL     1      -2.319   2.316   0.993  1.00  0.00    -0.225 NA
ATOM     27  H   UNL     1      -1.340   2.588   0.905  1.00  0.00     0.137 HD
ATOM     28  H   UNL     1      -2.445   1.773   1.847  1.00  0.00     0.137 HD
ENDBRANCH  23  26
ENDBRANCH  11  23
ENDBRANCH   1   7
TORSDOF 9
