REMARK SMILES C[C@@H](C(=O)[O-])c1ccc(-c2ccccc2)c(F)c1
REMARK SMILES IDX 6 1 7 2 8 3 9 4 16 5 17 6 18 7 2 8 1 9 3 10 4 11 5 12 10 13
REMARK SMILES IDX 11 14 15 15 12 16 14 17 13 18
REMARK H PARENT
REMARK Flexibility Score: inf
ROOT
ATOM      1  C   UNL     1      -1.808  -0.374  -0.337  1.00  0.00    -0.037 A 
ATOM      2  C   UNL     1      -1.355  -0.886   0.877  1.00  0.00     0.005 A 
ATOM      3  C   UNL     1      -0.001  -1.128   1.108  1.00  0.00     0.012 A 
ATOM      4  C   UNL     1       0.931  -0.965   0.087  1.00  0.00     0.017 A 
ATOM      5  C   UNL     1       0.360  -1.001  -1.182  1.00  0.00     0.131 A 
ATOM      6  F   UNL     1       1.244  -1.141  -2.210  1.00  0.00    -0.206 F 
ATOM      7  C   UNL     1      -0.927  -0.507  -1.375  1.00  0.00     0.044 A 
ENDROOT
BRANCH   1   8
ATOM      8  C   UNL     1      -2.570   1.044  -0.205  1.00  0.00     0.062 C 
ATOM      9  C   UNL     1      -2.822   1.208  -1.821  1.00  0.00     0.019 C 
BRANCH   8  10
ATOM     10  C   UNL     1      -4.010   0.359   0.018  1.00  0.00     0.049 C 
ATOM     11  O   UNL     1      -4.772   0.987   0.790  1.00  0.00    -0.550 OA
ATOM     12  O   UNL     1      -4.359  -0.686  -0.782  1.00  0.00    -0.550 OA
ENDBRANCH   8  10
ENDBRANCH   1   8
BRANCH   4  13
ATOM     13  C   UNL     1       2.211  -0.271   0.311  1.00  0.00    -0.015 A 
ATOM     14  C   UNL     1       3.421  -0.830  -0.069  1.00  0.00     0.009 A 
ATOM     15  C   UNL     1       2.222   1.053   0.734  1.00  0.00     0.009 A 
ATOM     16  C   UNL     1       4.569  -0.050  -0.030  1.00  0.00     0.001 A 
ATOM     17  C   UNL     1       3.196   1.871   0.172  1.00  0.00     0.001 A 
ATOM     18  C   UNL     1       4.472   1.319   0.170  1.00  0.00     0.000 A 
ENDBRANCH   4  13
TORSDOF 3
