REMARK SMILES CCc1cccc2c3c([nH]c12)[C@@](CC)(CC(=O)[O-])OCC3
REMARK SMILES IDX 3 1 4 2 5 3 6 4 7 5 8 6 9 7 10 8 11 9 12 10 19 11 20 12
REMARK SMILES IDX 21 13 2 15 1 16 13 17 14 18 15 19 16 20 17 21 18 22
REMARK H PARENT 10 14
REMARK Flexibility Score: inf
ROOT
ATOM      1  C   UNL     1      -3.123   0.689   0.198  1.00  0.00    -0.024 A 
ATOM      2  C   UNL     1      -4.140  -0.226   0.389  1.00  0.00     0.006 A 
ATOM      3  C   UNL     1      -3.955  -1.515  -0.066  1.00  0.00     0.001 A 
ATOM      4  C   UNL     1      -2.699  -2.009  -0.396  1.00  0.00     0.010 A 
ATOM      5  C   UNL     1      -1.659  -1.113  -0.347  1.00  0.00     0.003 A 
ATOM      6  C   UNL     1      -0.311  -1.321  -0.432  1.00  0.00    -0.014 A 
ATOM      7  C   UNL     1       0.287  -0.079  -0.250  1.00  0.00     0.052 A 
ATOM      8  N   UNL     1      -0.627   0.769   0.280  1.00  0.00    -0.356 N 
ATOM      9  C   UNL     1      -1.832   0.224  -0.013  1.00  0.00     0.049 A 
ATOM     10  C   UNL     1       1.785  -0.141  -0.214  1.00  0.00     0.113 C 
ATOM     11  O   UNL     1       2.111  -0.983   0.823  1.00  0.00    -0.368 OA
ATOM     12  C   UNL     1       1.750  -2.287   0.584  1.00  0.00     0.166 C 
ATOM     13  C   UNL     1       0.631  -2.472  -0.390  1.00  0.00     0.066 C 
ATOM     14  H   UNL     1      -0.453   1.603   0.773  1.00  0.00     0.166 HD
ENDROOT
BRANCH   1  15
ATOM     15  C   UNL     1      -3.346   2.121   0.554  1.00  0.00     0.034 C 
ATOM     16  C   UNL     1      -3.126   2.859   0.120  1.00  0.00     0.009 C 
ENDBRANCH   1  15
BRANCH  10  17
ATOM     17  C   UNL     1       2.239  -0.766  -1.508  1.00  0.00     0.039 C 
ATOM     18  C   UNL     1       1.986   0.230  -2.620  1.00  0.00     0.007 C 
ENDBRANCH  10  17
BRANCH  10  19
ATOM     19  C   UNL     1       2.288   1.252  -0.078  1.00  0.00     0.094 C 
BRANCH  19  20
ATOM     20  C   UNL     1       3.500   1.406   0.740  1.00  0.00     0.045 C 
ATOM     21  O   UNL     1       4.533   0.695   0.610  1.00  0.00    -0.550 OA
ATOM     22  O   UNL     1       3.709   2.669   1.306  1.00  0.00    -0.550 OA
ENDBRANCH  19  20
ENDBRANCH  10  19
TORSDOF 4
