REMARK SMILES C[C@H](C(=O)[O-])c1cccc(C(=O)c2ccccc2)c1
REMARK SMILES IDX 6 1 7 2 8 3 9 4 10 5 19 6 2 7 1 8 3 9 4 10 5 11 11 12 12 13
REMARK SMILES IDX 13 14 14 15 18 16 15 17 17 18 16 19
REMARK H PARENT
REMARK Flexibility Score: inf
ROOT
ATOM      1  C   UNL     1      -1.804  -0.336   0.436  1.00  0.00    -0.039 A 
ATOM      2  C   UNL     1      -2.394  -1.202  -0.397  1.00  0.00     0.004 A 
ATOM      3  C   UNL     1      -1.734  -2.342  -0.833  1.00  0.00     0.001 A 
ATOM      4  C   UNL     1      -0.361  -2.479  -0.682  1.00  0.00     0.012 A 
ATOM      5  C   UNL     1       0.305  -1.408  -0.131  1.00  0.00     0.023 A 
ATOM      6  C   UNL     1      -0.415  -0.414   0.516  1.00  0.00     0.016 A 
ENDROOT
BRANCH   1   7
ATOM      7  C   UNL     1      -2.190   1.225   0.427  1.00  0.00     0.062 C 
ATOM      8  C   UNL     1      -2.838   1.130   1.935  1.00  0.00     0.019 C 
BRANCH   7   9
ATOM      9  C   UNL     1      -3.638   1.051  -0.265  1.00  0.00     0.049 C 
ATOM     10  O   UNL     1      -3.579   0.730  -1.493  1.00  0.00    -0.550 OA
ATOM     11  O   UNL     1      -4.302   2.273  -0.072  1.00  0.00    -0.550 OA
ENDBRANCH   7   9
ENDBRANCH   1   7
BRANCH   5  12
ATOM     12  C   UNL     1       1.752  -1.480   0.051  1.00  0.00     0.193 C 
ATOM     13  O   UNL     1       2.305  -2.550   0.367  1.00  0.00    -0.289 OA
BRANCH  12  14
ATOM     14  C   UNL     1       2.478  -0.211  -0.081  1.00  0.00     0.022 A 
ATOM     15  C   UNL     1       3.745  -0.141   0.486  1.00  0.00     0.012 A 
ATOM     16  C   UNL     1       2.001   0.820  -0.845  1.00  0.00     0.012 A 
ATOM     17  C   UNL     1       4.410   1.073   0.393  1.00  0.00     0.001 A 
ATOM     18  C   UNL     1       2.553   2.073  -0.700  1.00  0.00     0.001 A 
ATOM     19  C   UNL     1       3.707   2.187   0.028  1.00  0.00     0.000 A 
ENDBRANCH  12  14
ENDBRANCH   5  12
TORSDOF 4
