REMARK SMILES CC1=C(C(=O)[O-])N2C(=O)[C@@H](NC(=O)[C@H]([NH3+])c3ccccc3)[C@H]2SC1
REMARK SMILES IDX 11 1 12 2 13 3 10 5 1 6 2 7 3 8 24 9 7 10 23 11 8 12 22 13
REMARK SMILES IDX 9 14 4 15 5 16 6 17 14 18 15 19 16 23 17 24 21 25 18 26
REMARK SMILES IDX 20 27 19 28
REMARK H PARENT 11 4 15 20 15 21 15 22
REMARK Flexibility Score: inf
ROOT
ATOM      1  N   UNL     1       0.536  -0.720  -0.500  1.00  0.00    -0.336 N 
ATOM      2  C   UNL     1       1.584  -0.006   0.170  1.00  0.00     0.283 C 
ATOM      3  O   UNL     1       1.216   0.830   0.985  1.00  0.00    -0.268 OA
ATOM      4  H   UNL     1       0.499  -0.819  -1.479  1.00  0.00     0.164 HD
ENDROOT
BRANCH   1   5
ATOM      5  C   UNL     1      -0.561  -1.341   0.475  1.00  0.00     0.205 C 
ATOM      6  C   UNL     1      -4.714   1.907   0.625  1.00  0.00     0.043 C 
ATOM      7  C   UNL     1      -3.762   1.379   0.232  1.00  0.00    -0.038 C 
ATOM      8  C   UNL     1      -3.745   0.053   0.130  1.00  0.00     0.067 C 
ATOM      9  C   UNL     1      -2.720   2.150  -0.512  1.00  0.00     0.104 C 
ATOM     10  N   UNL     1      -2.553  -0.743   0.235  1.00  0.00    -0.294 N 
ATOM     11  S   UNL     1      -1.285   1.059  -0.841  1.00  0.00    -0.129 SA
ATOM     12  C   UNL     1      -1.702  -1.506  -0.664  1.00  0.00     0.253 C 
ATOM     13  C   UNL     1      -1.402   0.086   0.798  1.00  0.00     0.181 C 
ATOM     14  O   UNL     1      -1.947  -2.694  -1.043  1.00  0.00    -0.272 OA
BRANCH   8  15
ATOM     15  C   UNL     1      -5.004  -0.701   0.180  1.00  0.00     0.088 C 
ATOM     16  O   UNL     1      -5.235  -1.458   1.171  1.00  0.00    -0.543 OA
ATOM     17  O   UNL     1      -6.144  -0.263  -0.505  1.00  0.00    -0.543 OA
ENDBRANCH   8  15
ENDBRANCH   1   5
BRANCH   2  18
ATOM     18  C   UNL     1       2.928  -0.872   0.480  1.00  0.00     0.302 C 
BRANCH  18  19
ATOM     19  N   UNL     1       3.002  -0.448   2.018  1.00  0.00    -0.343 N 
ATOM     20  H   UNL     1       2.873   0.561   2.100  1.00  0.00     0.345 HD
ATOM     21  H   UNL     1       3.912  -0.706   2.399  1.00  0.00     0.345 HD
ATOM     22  H   UNL     1       2.267  -0.928   2.539  1.00  0.00     0.345 HD
ENDBRANCH  18  19
BRANCH  18  23
ATOM     23  C   UNL     1       3.935   0.337   0.023  1.00  0.00     0.019 A 
ATOM     24  C   UNL     1       5.124   0.328   0.750  1.00  0.00     0.010 A 
ATOM     25  C   UNL     1       4.164   0.174  -1.340  1.00  0.00     0.010 A 
ATOM     26  C   UNL     1       6.373   0.347   0.211  1.00  0.00     0.001 A 
ATOM     27  C   UNL     1       5.400   0.256  -1.931  1.00  0.00     0.001 A 
ATOM     28  C   UNL     1       6.514   0.389  -1.148  1.00  0.00     0.000 A 
ENDBRANCH  18  23
ENDBRANCH   2  18
TORSDOF 5
