REMARK SMILES [NH3+][C@@H](Cc1ccccc1)C(=O)[O-]
REMARK SMILES IDX 3 1 2 2 1 3 10 7 11 8 12 9 4 10 5 11 9 12 6 13 8 14 7 15
REMARK H PARENT 1 4 1 5 1 6
REMARK Flexibility Score: inf
ROOT
ATOM      1  C   UNL     1       0.539  -0.556  -0.409  1.00  0.00     0.107 C 
ENDROOT
BRANCH   1   2
ATOM      2  C   UNL     1       1.698  -0.677   0.773  1.00  0.00     0.232 C 
BRANCH   2   3
ATOM      3  N   UNL     1       1.197   0.649   1.498  1.00  0.00    -0.350 N 
ATOM      4  H   UNL     1       0.469   0.414   2.172  1.00  0.00     0.345 HD
ATOM      5  H   UNL     1       0.821   1.295   0.803  1.00  0.00     0.345 HD
ATOM      6  H   UNL     1       1.980   1.089   1.982  1.00  0.00     0.345 HD
ENDBRANCH   2   3
BRANCH   2   7
ATOM      7  C   UNL     1       2.787   0.078  -0.165  1.00  0.00     0.099 C 
ATOM      8  O   UNL     1       3.051   1.241   0.015  1.00  0.00    -0.544 OA
ATOM      9  O   UNL     1       3.445  -0.858  -0.925  1.00  0.00    -0.544 OA
ENDBRANCH   2   7
ENDBRANCH   1   2
BRANCH   1  10
ATOM     10  C   UNL     1      -0.740  -0.340   0.319  1.00  0.00    -0.042 A 
ATOM     11  C   UNL     1      -1.206   0.961   0.468  1.00  0.00     0.004 A 
ATOM     12  C   UNL     1      -1.744  -1.293   0.188  1.00  0.00     0.004 A 
ATOM     13  C   UNL     1      -2.508   1.335   0.304  1.00  0.00     0.000 A 
ATOM     14  C   UNL     1      -3.077  -0.934   0.018  1.00  0.00     0.000 A 
ATOM     15  C   UNL     1      -3.442   0.394  -0.038  1.00  0.00     0.000 A 
ENDBRANCH   1  10
TORSDOF 4
