REMARK SMILES Nc1c(CC(=O)[O-])cccc1C(=O)c1ccc(Br)cc1
REMARK SMILES IDX 2 1 3 2 8 3 9 4 10 5 11 6 1 7 4 10 5 11 6 12 7 13 12 14
REMARK SMILES IDX 13 15 14 16 15 17 20 18 16 19 19 20 17 21 18 22
REMARK H PARENT 1 8 1 9
REMARK Flexibility Score: inf
ROOT
ATOM      1  C   UNL     1       1.530   0.149  -0.203  1.00  0.00     0.046 A 
ATOM      2  C   UNL     1       2.784  -0.448  -0.178  1.00  0.00    -0.019 A 
ATOM      3  C   UNL     1       2.854  -1.726   0.340  1.00  0.00     0.006 A 
ATOM      4  C   UNL     1       1.728  -2.490   0.468  1.00  0.00     0.001 A 
ATOM      5  C   UNL     1       0.488  -1.936   0.197  1.00  0.00     0.014 A 
ATOM      6  C   UNL     1       0.385  -0.569   0.056  1.00  0.00     0.046 A 
ENDROOT
BRANCH   1   7
ATOM      7  N   UNL     1       1.379   1.450  -0.753  1.00  0.00    -0.398 N 
ATOM      8  H   UNL     1       2.174   1.996  -0.953  1.00  0.00     0.156 HD
ATOM      9  H   UNL     1       0.479   1.806  -0.935  1.00  0.00     0.156 HD
ENDBRANCH   1   7
BRANCH   2  10
ATOM     10  C   UNL     1       4.001   0.272  -0.665  1.00  0.00     0.090 C 
BRANCH  10  11
ATOM     11  C   UNL     1       4.559   1.171   0.377  1.00  0.00     0.046 C 
ATOM     12  O   UNL     1       3.868   2.103   0.867  1.00  0.00    -0.550 OA
ATOM     13  O   UNL     1       5.927   1.207   0.660  1.00  0.00    -0.550 OA
ENDBRANCH  10  11
ENDBRANCH   2  10
BRANCH   6  14
ATOM     14  C   UNL     1      -0.874   0.089   0.370  1.00  0.00     0.195 C 
ATOM     15  O   UNL     1      -0.790   1.202   0.970  1.00  0.00    -0.289 OA
BRANCH  14  16
ATOM     16  C   UNL     1      -2.154  -0.337  -0.208  1.00  0.00     0.023 A 
ATOM     17  C   UNL     1      -2.724   0.364  -1.263  1.00  0.00     0.013 A 
ATOM     18  C   UNL     1      -3.022  -1.166   0.492  1.00  0.00     0.013 A 
ATOM     19  C   UNL     1      -4.096   0.531  -1.314  1.00  0.00     0.016 A 
ATOM     20  C   UNL     1      -4.391  -0.925   0.504  1.00  0.00     0.016 A 
ATOM     21  C   UNL     1      -4.945   0.037  -0.333  1.00  0.00     0.018 A 
ATOM     22  Br  UNL     1      -6.507   1.022   0.175  1.00  0.00    -0.051 Br
ENDBRANCH  14  16
ENDBRANCH   6  14
TORSDOF 5
