REMARK SMILES CC(C)n1c(/C=C/[C@H](O)C[C@H](O)CC(=O)[O-])c(-c2ccc(F)cc2)c2ccccc21
REMARK SMILES IDX 10 1 8 2 7 3 6 4 5 5 4 6 30 7 17 8 25 9 29 10 26 11 28 12
REMARK SMILES IDX 27 13 2 14 1 15 3 16 18 17 19 18 24 19 20 20 23 21 21 22
REMARK SMILES IDX 22 23 9 24 11 26 12 27 13 29 14 30 15 31 16 32
REMARK H PARENT 9 25 12 28
REMARK Flexibility Score: inf
ROOT
ATOM      1  C   UNL     1       3.071  -0.773   0.406  1.00  0.00     0.068 C 
ENDROOT
BRANCH   1   2
ATOM      2  C   UNL     1       2.692  -0.043  -1.066  1.00  0.00     0.140 C 
BRANCH   2   3
ATOM      3  C   UNL     1       1.304  -0.938  -1.186  1.00  0.00     0.006 C 
ATOM      4  C   UNL     1       0.441  -0.623  -0.231  1.00  0.00     0.025 C 
BRANCH   4   5
ATOM      5  C   UNL     1      -1.009  -0.645  -0.440  1.00  0.00     0.050 A 
ATOM      6  N   UNL     1      -1.718  -1.205  -1.420  1.00  0.00    -0.338 N 
ATOM      7  C   UNL     1      -3.025  -0.907  -1.252  1.00  0.00     0.049 A 
ATOM      8  C   UNL     1      -1.893  -0.241   0.552  1.00  0.00     0.015 A 
ATOM      9  C   UNL     1      -3.142  -0.433   0.025  1.00  0.00     0.008 A 
ATOM     10  C   UNL     1      -4.217  -1.299  -1.852  1.00  0.00     0.027 A 
ATOM     11  C   UNL     1      -4.370  -0.082   0.572  1.00  0.00     0.011 A 
ATOM     12  C   UNL     1      -5.390  -1.324  -1.125  1.00  0.00     0.002 A 
ATOM     13  C   UNL     1      -5.455  -0.859   0.184  1.00  0.00     0.001 A 
BRANCH   6  14
ATOM     14  C   UNL     1      -1.209  -2.181  -2.383  1.00  0.00     0.081 C 
ATOM     15  C   UNL     1      -1.773  -1.865  -3.748  1.00  0.00     0.031 C 
ATOM     16  C   UNL     1      -1.583  -3.601  -1.972  1.00  0.00     0.031 C 
ENDBRANCH   6  14
BRANCH   8  17
ATOM     17  C   UNL     1      -1.545   0.743   1.586  1.00  0.00    -0.015 A 
ATOM     18  C   UNL     1      -2.511   1.174   2.487  1.00  0.00     0.012 A 
ATOM     19  C   UNL     1      -0.427   1.563   1.479  1.00  0.00     0.012 A 
ATOM     20  C   UNL     1      -2.516   2.508   2.882  1.00  0.00     0.040 A 
ATOM     21  C   UNL     1      -0.532   2.926   1.738  1.00  0.00     0.040 A 
ATOM     22  C   UNL     1      -1.708   3.455   2.261  1.00  0.00     0.123 A 
ATOM     23  F   UNL     1      -2.209   4.650   1.829  1.00  0.00    -0.207 F 
ENDBRANCH   8  17
ENDBRANCH   4   5
ENDBRANCH   2   3
BRANCH   2  24
ATOM     24  O   UNL     1       3.473  -1.107  -1.885  1.00  0.00    -0.389 OA
ATOM     25  H   UNL     1       3.255  -1.993  -1.555  1.00  0.00     0.211 HD
ENDBRANCH   2  24
ENDBRANCH   1   2
BRANCH   1  26
ATOM     26  C   UNL     1       4.708  -1.018   0.132  1.00  0.00     0.123 C 
BRANCH  26  27
ATOM     27  O   UNL     1       5.042  -0.829   1.630  1.00  0.00    -0.393 OA
ATOM     28  H   UNL     1       4.576  -0.048   1.969  1.00  0.00     0.210 HD
ENDBRANCH  26  27
BRANCH  26  29
ATOM     29  C   UNL     1       4.964   0.619  -0.151  1.00  0.00     0.084 C 
BRANCH  29  30
ATOM     30  C   UNL     1       6.439   0.714   0.056  1.00  0.00     0.044 C 
ATOM     31  O   UNL     1       7.182  -0.275   0.272  1.00  0.00    -0.550 OA
ATOM     32  O   UNL     1       6.914   1.897   0.623  1.00  0.00    -0.550 OA
ENDBRANCH  29  30
ENDBRANCH  26  29
ENDBRANCH   1  26
TORSDOF 10
