REMARK SMILES O=S(=O)([O-])c1ccc2[nH]c(-c3ccccc3)nc2c1
REMARK SMILES IDX 5 1 6 2 7 3 8 4 9 5 10 6 17 7 18 8 19 9 2 11 1 12 3 13 4 14
REMARK SMILES IDX 11 15 12 16 16 17 13 18 15 19 14 20
REMARK H PARENT 9 10
REMARK Flexibility Score: inf
ROOT
ATOM      1  C   UNL     1      -2.604  -0.192   0.003  1.00  0.00     0.057 A 
ATOM      2  C   UNL     1      -2.580   0.042  -1.355  1.00  0.00     0.021 A 
ATOM      3  C   UNL     1      -1.560  -0.480  -2.141  1.00  0.00     0.030 A 
ATOM      4  C   UNL     1      -0.359  -0.854  -1.550  1.00  0.00     0.066 A 
ATOM      5  N   UNL     1       0.947  -0.680  -1.867  1.00  0.00    -0.338 N 
ATOM      6  C   UNL     1       1.716  -0.780  -0.764  1.00  0.00     0.138 A 
ATOM      7  N   UNL     1       0.876  -1.267   0.183  1.00  0.00    -0.228 NA
ATOM      8  C   UNL     1      -0.405  -1.054  -0.176  1.00  0.00     0.090 A 
ATOM      9  C   UNL     1      -1.624  -1.044   0.493  1.00  0.00     0.049 A 
ATOM     10  H   UNL     1       1.286  -0.506  -2.775  1.00  0.00     0.168 HD
ENDROOT
BRANCH   1  11
ATOM     11  S   UNL     1      -3.961   0.295   1.010  1.00  0.00     0.124 S 
ATOM     12  O   UNL     1      -4.118   1.786   1.005  1.00  0.00    -0.237 OA
ATOM     13  O   UNL     1      -5.190  -0.392   0.515  1.00  0.00    -0.237 OA
ATOM     14  O   UNL     1      -3.631  -0.151   2.592  1.00  0.00    -0.744 OA
ENDBRANCH   1  11
BRANCH   6  15
ATOM     15  C   UNL     1       2.967  -0.062  -0.478  1.00  0.00     0.017 A 
ATOM     16  C   UNL     1       3.098   1.299  -0.728  1.00  0.00     0.012 A 
ATOM     17  C   UNL     1       3.717  -0.525   0.597  1.00  0.00     0.012 A 
ATOM     18  C   UNL     1       3.628   2.171   0.214  1.00  0.00     0.001 A 
ATOM     19  C   UNL     1       4.680   0.263   1.214  1.00  0.00     0.001 A 
ATOM     20  C   UNL     1       4.401   1.625   1.232  1.00  0.00     0.000 A 
ENDBRANCH   6  15
TORSDOF 2
