REMARK SMILES Nc1nc(-n2cc(C(=O)[O-])c(=O)c3cc(F)c(N4CC(O)C4)c(Cl)c32)c(F)cc1F
REMARK SMILES IDX 5 1 6 2 7 3 11 4 12 5 13 6 14 7 15 8 16 9 17 10 23 11 24 12
REMARK SMILES IDX 25 13 4 14 2 15 3 16 29 17 28 18 30 19 26 20 27 21 1 22 8 25
REMARK SMILES IDX 9 26 10 27 18 28 19 29 22 30 20 31 21 32
REMARK H PARENT 1 23 1 24 21 33
REMARK Flexibility Score: inf
ROOT
ATOM      1  N   UNL     1       0.638   0.478   0.351  1.00  0.00    -0.296 N 
ATOM      2  C   UNL     1       0.925   1.758   0.687  1.00  0.00     0.107 A 
ATOM      3  C   UNL     1       0.287   2.828   0.071  1.00  0.00     0.062 A 
ATOM      4  C   UNL     1      -0.841   2.596  -0.706  1.00  0.00     0.198 A 
ATOM      5  O   UNL     1      -1.598   3.563  -1.014  1.00  0.00    -0.288 OA
ATOM      6  C   UNL     1      -1.108   1.300  -1.062  1.00  0.00     0.051 A 
ATOM      7  C   UNL     1      -2.217   1.024  -1.850  1.00  0.00     0.056 A 
ATOM      8  C   UNL     1      -2.836  -0.213  -1.718  1.00  0.00     0.148 A 
ATOM      9  F   UNL     1      -4.001  -0.495  -2.368  1.00  0.00    -0.205 F 
ATOM     10  C   UNL     1      -2.235  -1.200  -0.947  1.00  0.00     0.094 A 
ATOM     11  C   UNL     1      -0.904  -0.997  -0.626  1.00  0.00     0.092 A 
ATOM     12  Cl  UNL     1       0.049  -2.346  -0.095  1.00  0.00    -0.080 Cl
ATOM     13  C   UNL     1      -0.325   0.259  -0.579  1.00  0.00     0.079 A 
ENDROOT
BRANCH   1  14
ATOM     14  C   UNL     1       1.643  -0.541   0.474  1.00  0.00     0.176 A 
ATOM     15  C   UNL     1       3.874  -0.879  -0.261  1.00  0.00     0.162 A 
ATOM     16  N   UNL     1       2.618  -0.457  -0.471  1.00  0.00    -0.207 NA
ATOM     17  C   UNL     1       4.185  -1.589   0.891  1.00  0.00     0.168 A 
ATOM     18  C   UNL     1       3.316  -1.400   1.957  1.00  0.00     0.086 A 
ATOM     19  F   UNL     1       5.115  -2.570   0.876  1.00  0.00    -0.203 F 
ATOM     20  C   UNL     1       2.163  -0.650   1.764  1.00  0.00     0.169 A 
ATOM     21  F   UNL     1       1.415  -0.357   2.863  1.00  0.00    -0.203 F 
BRANCH  15  22
ATOM     22  N   UNL     1       4.927  -0.670  -1.208  1.00  0.00    -0.381 N 
ATOM     23  H   UNL     1       4.750  -0.171  -2.039  1.00  0.00     0.158 HD
ATOM     24  H   UNL     1       5.828  -1.024  -1.029  1.00  0.00     0.158 HD
ENDBRANCH  15  22
ENDBRANCH   1  14
BRANCH   3  25
ATOM     25  C   UNL     1       0.934   4.144   0.009  1.00  0.00     0.077 C 
ATOM     26  O   UNL     1       0.898   4.846   1.060  1.00  0.00    -0.545 OA
ATOM     27  O   UNL     1       1.199   4.787  -1.195  1.00  0.00    -0.545 OA
ENDBRANCH   3  25
BRANCH  10  28
ATOM     28  N   UNL     1      -2.960  -2.361  -0.526  1.00  0.00    -0.363 N 
ATOM     29  C   UNL     1      -2.700  -3.318   0.536  1.00  0.00     0.150 C 
ATOM     30  C   UNL     1      -4.377  -2.490  -0.197  1.00  0.00     0.150 C 
ATOM     31  C   UNL     1      -4.053  -3.043   1.177  1.00  0.00     0.153 C 
BRANCH  31  32
ATOM     32  O   UNL     1      -4.030  -2.009   2.108  1.00  0.00    -0.389 OA
ATOM     33  H   UNL     1      -3.543  -1.255   1.741  1.00  0.00     0.211 HD
ENDBRANCH  31  32
ENDBRANCH  10  28
TORSDOF 5
