REMARK SMILES CC1=NN(c2ccc(C)c(C)c2)C(=O)/C1=N\Nc1cccc(-c2cccc(C(=O)[O-])c2)c1O
REMARK SMILES IDX 18 1 19 2 20 3 21 4 22 5 32 6 17 7 16 9 1 10 2 11 3 12 15 13
REMARK SMILES IDX 4 14 13 15 14 16 5 17 6 18 12 19 7 20 10 21 8 22 11 23 9 24
REMARK SMILES IDX 33 25 23 27 24 28 31 29 25 30 27 31 26 32 28 33 29 34 30 35
REMARK H PARENT 17 8 33 26
REMARK Flexibility Score: inf
ROOT
ATOM      1  C   UNL     1       1.263  -0.590  -1.277  1.00  0.00     0.099 A 
ATOM      2  C   UNL     1       0.954  -1.727  -2.008  1.00  0.00     0.031 A 
ATOM      3  C   UNL     1       1.538  -2.933  -1.675  1.00  0.00     0.003 A 
ATOM      4  C   UNL     1       2.650  -2.935  -0.844  1.00  0.00     0.013 A 
ATOM      5  C   UNL     1       3.064  -1.791  -0.177  1.00  0.00     0.026 A 
ATOM      6  C   UNL     1       2.233  -0.683  -0.298  1.00  0.00     0.148 A 
ENDROOT
BRANCH   1   7
ATOM      7  N   UNL     1       0.365   0.521  -1.181  1.00  0.00    -0.274 N 
ATOM      8  H   UNL     1       0.082   1.035  -1.972  1.00  0.00     0.190 HD
BRANCH   7   9
ATOM      9  N   UNL     1      -0.087   0.832   0.116  1.00  0.00    -0.168 NA
ATOM     10  C   UNL     1      -1.052  -0.343   2.881  1.00  0.00     0.071 C 
ATOM     11  C   UNL     1      -1.857   0.030   1.677  1.00  0.00     0.092 C 
ATOM     12  N   UNL     1      -3.145   0.128   1.645  1.00  0.00    -0.167 NA
ATOM     13  C   UNL     1      -1.294   0.544   0.424  1.00  0.00     0.173 C 
ATOM     14  N   UNL     1      -3.579   0.572   0.387  1.00  0.00    -0.195 N 
ATOM     15  C   UNL     1      -2.445   0.626  -0.479  1.00  0.00     0.301 C 
ATOM     16  O   UNL     1      -2.367   0.867  -1.699  1.00  0.00    -0.265 OA
BRANCH  14  17
ATOM     17  C   UNL     1      -4.894   1.008   0.026  1.00  0.00     0.069 A 
ATOM     18  C   UNL     1      -5.335   2.213   0.558  1.00  0.00     0.029 A 
ATOM     19  C   UNL     1      -5.805   0.099  -0.468  1.00  0.00     0.032 A 
ATOM     20  C   UNL     1      -6.690   2.436   0.775  1.00  0.00     0.006 A 
ATOM     21  C   UNL     1      -7.165   0.299  -0.270  1.00  0.00    -0.046 A 
ATOM     22  C   UNL     1      -7.563   1.566   0.135  1.00  0.00    -0.048 A 
ATOM     23  C   UNL     1      -8.185  -0.596  -0.885  1.00  0.00     0.044 C 
ATOM     24  C   UNL     1      -8.948   2.022  -0.198  1.00  0.00     0.044 C 
ENDBRANCH  14  17
ENDBRANCH   7   9
ENDBRANCH   1   7
BRANCH   6  25
ATOM     25  O   UNL     1       2.451   0.331   0.640  1.00  0.00    -0.505 OA
ATOM     26  H   UNL     1       3.119   0.233   1.290  1.00  0.00     0.293 HD
ENDBRANCH   6  25
BRANCH   5  27
ATOM     27  C   UNL     1       4.481  -1.615   0.164  1.00  0.00    -0.014 A 
ATOM     28  C   UNL     1       5.443  -2.462  -0.372  1.00  0.00     0.009 A 
ATOM     29  C   UNL     1       4.921  -0.423   0.673  1.00  0.00     0.018 A 
ATOM     30  C   UNL     1       6.695  -2.007  -0.722  1.00  0.00     0.001 A 
ATOM     31  C   UNL     1       6.228  -0.013   0.444  1.00  0.00    -0.002 A 
ATOM     32  C   UNL     1       7.112  -0.762  -0.318  1.00  0.00     0.010 A 
BRANCH  31  33
ATOM     33  C   UNL     1       6.695   1.262   0.975  1.00  0.00     0.072 C 
ATOM     34  O   UNL     1       6.461   2.299   0.305  1.00  0.00    -0.545 OA
ATOM     35  O   UNL     1       7.856   1.224   1.742  1.00  0.00    -0.545 OA
ENDBRANCH  31  33
ENDBRANCH   5  27
TORSDOF 6
