REMARK SMILES CC(C)Cc1ccc([C@@H](C)C(=O)[O-])cc1
REMARK SMILES IDX 5 1 6 2 7 3 8 4 14 5 15 6 4 7 2 8 1 9 3 10 9 11 10 12 11 13
REMARK SMILES IDX 12 14 13 15
REMARK H PARENT
REMARK Flexibility Score: inf
ROOT
ATOM      1  C   UNL     1       1.585  -0.029  -0.490  1.00  0.00    -0.048 A 
ATOM      2  C   UNL     1       0.866  -1.201  -0.688  1.00  0.00     0.004 A 
ATOM      3  C   UNL     1      -0.515  -1.091  -0.660  1.00  0.00     0.004 A 
ATOM      4  C   UNL     1      -1.169   0.033  -0.160  1.00  0.00    -0.040 A 
ATOM      5  C   UNL     1      -0.314   0.893   0.526  1.00  0.00     0.004 A 
ATOM      6  C   UNL     1       0.921   1.115  -0.065  1.00  0.00     0.004 A 
ENDROOT
BRANCH   1   7
ATOM      7  C   UNL     1       2.959   0.177  -0.985  1.00  0.00     0.038 C 
BRANCH   7   8
ATOM      8  C   UNL     1       3.872   0.731   0.084  1.00  0.00    -0.013 C 
ATOM      9  C   UNL     1       3.823   1.593   0.551  1.00  0.00     0.008 C 
ATOM     10  C   UNL     1       4.498  -0.449   0.780  1.00  0.00     0.008 C 
ENDBRANCH   7   8
ENDBRANCH   1   7
BRANCH   4  11
ATOM     11  C   UNL     1      -2.416  -0.481   0.770  1.00  0.00     0.062 C 
ATOM     12  C   UNL     1      -2.865   1.082   1.142  1.00  0.00     0.019 C 
BRANCH  11  13
ATOM     13  C   UNL     1      -3.431  -0.504  -0.513  1.00  0.00     0.049 C 
ATOM     14  O   UNL     1      -3.083  -1.402  -1.329  1.00  0.00    -0.550 OA
ATOM     15  O   UNL     1      -4.731  -0.466   0.007  1.00  0.00    -0.550 OA
ENDBRANCH  11  13
ENDBRANCH   4  11
TORSDOF 4
