REMARK SMILES Nc1ccc(C(=O)[O-])c(O)c1
REMARK SMILES IDX 2 1 3 2 4 3 5 4 9 5 11 6 1 7 10 10 6 12 7 13 8 14
REMARK H PARENT 1 8 1 9 10 11
REMARK Flexibility Score: inf
ROOT
ATOM      1  C   UNL     1       2.019  -0.143   0.159  1.00  0.00     0.035 A 
ATOM      2  C   UNL     1       1.525  -1.166  -0.644  1.00  0.00     0.026 A 
ATOM      3  C   UNL     1       0.144  -1.208  -0.781  1.00  0.00     0.016 A 
ATOM      4  C   UNL     1      -0.649  -0.141  -0.386  1.00  0.00     0.039 A 
ATOM      5  C   UNL     1       0.025   1.064  -0.228  1.00  0.00     0.126 A 
ATOM      6  C   UNL     1       1.398   1.089  -0.009  1.00  0.00     0.072 A 
ENDROOT
BRANCH   1   7
ATOM      7  N   UNL     1       3.284  -0.278   0.768  1.00  0.00    -0.399 N 
ATOM      8  H   UNL     1       3.690  -1.169   0.868  1.00  0.00     0.156 HD
ATOM      9  H   UNL     1       3.761   0.520   1.093  1.00  0.00     0.156 HD
ENDBRANCH   1   7
BRANCH   5  10
ATOM     10  O   UNL     1      -0.730   2.217  -0.111  1.00  0.00    -0.507 OA
ATOM     11  H   UNL     1      -1.655   2.189  -0.261  1.00  0.00     0.293 HD
ENDBRANCH   5  10
BRANCH   4  12
ATOM     12  C   UNL     1      -2.033  -0.325   0.071  1.00  0.00     0.075 C 
ATOM     13  O   UNL     1      -2.509   0.528   0.878  1.00  0.00    -0.545 OA
ATOM     14  O   UNL     1      -2.473  -1.637   0.282  1.00  0.00    -0.545 OA
ENDBRANCH   4  12
TORSDOF 3
