REMARK SMILES O=C([O-])CCCC[C@@H]1SC[C@@H]2[NH+]=C(O)N[C@@H]21
REMARK SMILES IDX 6 1 5 2 4 3 2 4 1 5 3 6 7 7 8 8 9 9 16 10 10 11 11 12 15 13
REMARK SMILES IDX 12 14 13 15 14 18
REMARK H PARENT 15 16 12 17 14 19
REMARK Flexibility Score: inf
ROOT
ATOM      1  C   UNL     1       1.396  -1.308  -0.379  1.00  0.00     0.002 C 
ENDROOT
BRANCH   1   2
ATOM      2  C   UNL     1       1.869  -0.322   0.633  1.00  0.00     0.006 C 
BRANCH   2   3
ATOM      3  C   UNL     1       2.864   0.551  -0.125  1.00  0.00     0.053 C 
BRANCH   3   4
ATOM      4  C   UNL     1       4.185   0.159   0.470  1.00  0.00     0.041 C 
ATOM      5  O   UNL     1       4.308   0.447   1.049  1.00  0.00    -0.550 OA
ATOM      6  O   UNL     1       4.871  -0.491  -0.576  1.00  0.00    -0.550 OA
ENDBRANCH   3   4
ENDBRANCH   2   3
ENDBRANCH   1   2
BRANCH   1   7
ATOM      7  C   UNL     1      -0.051  -1.264  -0.514  1.00  0.00     0.019 C 
BRANCH   7   8
ATOM      8  C   UNL     1      -0.797  -1.217   0.880  1.00  0.00     0.096 C 
ATOM      9  S   UNL     1      -2.232  -2.275   0.282  1.00  0.00    -0.149 SA
ATOM     10  C   UNL     1      -1.489   0.291   0.854  1.00  0.00     0.234 C 
ATOM     11  C   UNL     1      -2.661  -0.950  -0.915  1.00  0.00     0.124 C 
ATOM     12  C   UNL     1      -3.066  -0.201   0.476  1.00  0.00     0.232 C 
ATOM     13  N   UNL     1      -1.254   0.698  -0.637  1.00  0.00    -0.234 N 
ATOM     14  N   UNL     1      -3.379   1.118  -0.284  1.00  0.00    -0.234 N 
ATOM     15  C   UNL     1      -2.294   1.700  -0.599  1.00  0.00     0.440 C 
ATOM     16  H   UNL     1      -0.633   0.390  -1.336  1.00  0.00     0.309 HD
ATOM     17  H   UNL     1      -4.282   1.452  -0.490  1.00  0.00     0.309 HD
BRANCH  15  18
ATOM     18  O   UNL     1      -2.269   3.062  -0.962  1.00  0.00    -0.447 OA
ATOM     19  H   UNL     1      -3.043   3.584  -0.875  1.00  0.00     0.301 HD
ENDBRANCH  15  18
ENDBRANCH   7   8
ENDBRANCH   1   7
TORSDOF 6
