REMARK SMILES O=C([O-])c1ccc(-n2nc(-c3ccccc3O)nc2-c2ccccc2O)cc1
REMARK SMILES IDX 8 1 9 2 10 3 18 4 19 5 7 6 4 7 5 8 28 9 6 10 27 11 2 12 1 13
REMARK SMILES IDX 3 14 20 15 21 16 25 17 22 18 24 19 23 20 26 21 11 23 12 24
REMARK SMILES IDX 16 25 13 26 15 27 14 28 17 29
REMARK H PARENT 26 22 17 30
REMARK Flexibility Score: inf
ROOT
ATOM      1  N   UNL     1      -0.124   0.117   0.173  1.00  0.00    -0.212 N 
ATOM      2  N   UNL     1      -0.979  -0.883   0.212  1.00  0.00    -0.145 NA
ATOM      3  C   UNL     1      -2.078  -0.517  -0.479  1.00  0.00     0.185 A 
ATOM      4  N   UNL     1      -2.024   0.827  -0.515  1.00  0.00    -0.206 NA
ATOM      5  C   UNL     1      -0.828   1.235  -0.024  1.00  0.00     0.167 A 
ENDROOT
BRANCH   1   6
ATOM      6  C   UNL     1       1.286  -0.074   0.297  1.00  0.00     0.067 A 
ATOM      7  C   UNL     1       3.773  -1.354   0.214  1.00  0.00    -0.003 A 
ATOM      8  C   UNL     1       3.331  -0.592  -0.861  1.00  0.00     0.012 A 
ATOM      9  C   UNL     1       3.065  -1.179   1.397  1.00  0.00     0.012 A 
ATOM     10  C   UNL     1       2.059  -0.034  -0.857  1.00  0.00     0.029 A 
ATOM     11  C   UNL     1       1.706  -0.982   1.261  1.00  0.00     0.029 A 
BRANCH   7  12
ATOM     12  C   UNL     1       5.198  -1.691   0.313  1.00  0.00     0.071 C 
ATOM     13  O   UNL     1       5.607  -2.888   0.338  1.00  0.00    -0.545 OA
ATOM     14  O   UNL     1       6.008  -0.765   0.964  1.00  0.00    -0.545 OA
ENDBRANCH   7  12
ENDBRANCH   1   6
BRANCH   5  15
ATOM     15  C   UNL     1      -0.239   2.573  -0.154  1.00  0.00     0.061 A 
ATOM     16  C   UNL     1      -0.758   3.437  -1.108  1.00  0.00     0.016 A 
ATOM     17  C   UNL     1       0.608   3.088   0.820  1.00  0.00     0.126 A 
ATOM     18  C   UNL     1      -0.669   4.814  -0.945  1.00  0.00     0.001 A 
ATOM     19  C   UNL     1       1.077   4.380   0.623  1.00  0.00     0.047 A 
ATOM     20  C   UNL     1       0.290   5.297  -0.064  1.00  0.00     0.004 A 
BRANCH  17  21
ATOM     21  O   UNL     1       0.728   2.438   2.053  1.00  0.00    -0.507 OA
ATOM     22  H   UNL     1       1.298   2.784   2.711  1.00  0.00     0.293 HD
ENDBRANCH  17  21
ENDBRANCH   5  15
BRANCH   3  23
ATOM     23  C   UNL     1      -3.268  -1.373  -0.561  1.00  0.00     0.063 A 
ATOM     24  C   UNL     1      -4.394  -1.021   0.145  1.00  0.00     0.016 A 
ATOM     25  C   UNL     1      -3.119  -2.712  -0.894  1.00  0.00     0.126 A 
ATOM     26  C   UNL     1      -5.239  -1.990   0.669  1.00  0.00     0.001 A 
ATOM     27  C   UNL     1      -4.068  -3.665  -0.543  1.00  0.00     0.047 A 
ATOM     28  C   UNL     1      -5.094  -3.300   0.302  1.00  0.00     0.004 A 
BRANCH  25  29
ATOM     29  O   UNL     1      -1.855  -3.186  -1.254  1.00  0.00    -0.507 OA
ATOM     30  H   UNL     1      -1.739  -4.087  -1.481  1.00  0.00     0.293 HD
ENDBRANCH  25  29
ENDBRANCH   3  23
TORSDOF 6
