REMARK SMILES O=C(c1ccccc1)c1ccc2n1CC[C@H]2C(=O)[O-]
REMARK SMILES IDX 16 1 15 2 14 3 13 4 9 5 10 6 11 7 12 8 17 9 18 10 19 11 2 12
REMARK SMILES IDX 1 13 3 14 4 15 8 16 5 17 7 18 6 19
REMARK H PARENT
REMARK Flexibility Score: inf
ROOT
ATOM      1  C   UNL     1       3.006   0.279  -0.846  1.00  0.00     0.084 C 
ATOM      2  C   UNL     1       1.864   1.486  -0.851  1.00  0.00     0.038 C 
ATOM      3  C   UNL     1       0.767   0.601  -1.399  1.00  0.00     0.123 C 
ATOM      4  N   UNL     1       0.826  -0.487  -0.468  1.00  0.00    -0.341 N 
ATOM      5  C   UNL     1       0.006  -1.333   0.164  1.00  0.00     0.090 A 
ATOM      6  C   UNL     1       0.780  -2.442   0.484  1.00  0.00     0.032 A 
ATOM      7  C   UNL     1       2.095  -2.090   0.201  1.00  0.00     0.024 A 
ATOM      8  C   UNL     1       2.043  -0.706   0.023  1.00  0.00     0.027 A 
ENDROOT
BRANCH   1   9
ATOM      9  C   UNL     1       3.695   0.871   0.509  1.00  0.00     0.050 C 
ATOM     10  O   UNL     1       3.996   0.270   1.190  1.00  0.00    -0.549 OA
ATOM     11  O   UNL     1       4.137   2.190   0.343  1.00  0.00    -0.549 OA
ENDBRANCH   1   9
BRANCH   5  12
ATOM     12  C   UNL     1      -1.320  -1.125   0.746  1.00  0.00     0.209 C 
ATOM     13  O   UNL     1      -1.521  -1.479   1.948  1.00  0.00    -0.287 OA
BRANCH  12  14
ATOM     14  C   UNL     1      -2.340  -0.287   0.115  1.00  0.00     0.024 A 
ATOM     15  C   UNL     1      -3.671  -0.670   0.244  1.00  0.00     0.012 A 
ATOM     16  C   UNL     1      -2.122   1.083   0.192  1.00  0.00     0.012 A 
ATOM     17  C   UNL     1      -4.704   0.259   0.185  1.00  0.00     0.001 A 
ATOM     18  C   UNL     1      -3.123   2.019   0.077  1.00  0.00     0.001 A 
ATOM     19  C   UNL     1      -4.414   1.561  -0.123  1.00  0.00     0.000 A 
ENDBRANCH  12  14
ENDBRANCH   5  12
TORSDOF 3
