REMARK SMILES O=C([O-])[C@@H](S)[C@@H](S)C(=O)[O-]
REMARK SMILES IDX 4 1 2 2 1 3 3 4 5 5 6 7 7 8 8 10 9 11 10 12
REMARK H PARENT 5 6 7 9
REMARK Flexibility Score: inf
ROOT
ATOM      1  C   UNL     1       0.438  -0.295   0.551  1.00  0.00     0.107 C 
ENDROOT
BRANCH   1   2
ATOM      2  C   UNL     1       1.544  -0.314  -0.536  1.00  0.00     0.056 C 
ATOM      3  O   UNL     1       2.275   0.253  -0.629  1.00  0.00    -0.549 OA
ATOM      4  O   UNL     1       1.370  -1.425  -1.373  1.00  0.00    -0.549 OA
ENDBRANCH   1   2
BRANCH   1   5
ATOM      5  S   UNL     1       1.344   0.865   1.748  1.00  0.00    -0.168 SA
ATOM      6  H   UNL     1       1.802   1.950   1.068  1.00  0.00     0.103 HD
ENDBRANCH   1   5
BRANCH   1   7
ATOM      7  C   UNL     1      -0.471   0.882  -0.114  1.00  0.00     0.107 C 
BRANCH   7   8
ATOM      8  S   UNL     1      -0.612   0.157  -1.859  1.00  0.00    -0.168 SA
ATOM      9  H   UNL     1      -0.953  -1.157  -1.778  1.00  0.00     0.103 HD
ENDBRANCH   7   8
BRANCH   7  10
ATOM     10  C   UNL     1      -1.809   0.296   0.419  1.00  0.00     0.056 C 
ATOM     11  O   UNL     1      -1.971   0.625   1.635  1.00  0.00    -0.549 OA
ATOM     12  O   UNL     1      -2.107  -1.044   0.157  1.00  0.00    -0.549 OA
ENDBRANCH   7  10
ENDBRANCH   1   7
TORSDOF 5
