REMARK SMILES NS(=O)(=O)c1cc(C(=O)[O-])c(NCc2ccco2)cc1Cl
REMARK SMILES IDX 5 1 6 2 7 3 11 4 19 5 20 6 21 7 2 8 3 9 4 10 1 11 8 14 9 15
REMARK SMILES IDX 10 16 12 17 13 19 14 20 15 21 18 22 16 23 17 24
REMARK H PARENT 1 12 1 13 12 18
REMARK Flexibility Score: inf
ROOT
ATOM      1  C   UNL     1      -2.100   0.475  -0.330  1.00  0.00     0.101 A 
ATOM      2  C   UNL     1      -1.994  -0.832  -0.765  1.00  0.00     0.035 A 
ATOM      3  C   UNL     1      -0.781  -1.504  -0.661  1.00  0.00     0.022 A 
ATOM      4  C   UNL     1       0.317  -0.708  -0.350  1.00  0.00     0.045 A 
ATOM      5  C   UNL     1       0.176   0.539   0.240  1.00  0.00     0.048 A 
ATOM      6  C   UNL     1      -1.095   1.069   0.425  1.00  0.00     0.063 A 
ATOM      7  Cl  UNL     1      -1.472   2.094   1.810  1.00  0.00    -0.083 Cl
ENDROOT
BRANCH   1   8
ATOM      8  S   UNL     1      -3.620   1.358  -0.377  1.00  0.00     0.239 S 
ATOM      9  O   UNL     1      -3.395   2.663  -1.101  1.00  0.00    -0.207 OA
ATOM     10  O   UNL     1      -4.703   0.589  -1.044  1.00  0.00    -0.207 OA
BRANCH   8  11
ATOM     11  N   UNL     1      -4.005   1.739   1.274  1.00  0.00    -0.225 NA
ATOM     12  H   UNL     1      -4.884   2.255   1.307  1.00  0.00     0.137 HD
ATOM     13  H   UNL     1      -3.260   2.309   1.673  1.00  0.00     0.137 HD
ENDBRANCH   8  11
ENDBRANCH   1   8
BRANCH   3  14
ATOM     14  C   UNL     1      -0.714  -2.947  -0.398  1.00  0.00     0.074 C 
ATOM     15  O   UNL     1      -0.368  -3.778  -1.270  1.00  0.00    -0.545 OA
ATOM     16  O   UNL     1      -1.093  -3.431   0.847  1.00  0.00    -0.545 OA
ENDBRANCH   3  14
BRANCH   4  17
ATOM     17  N   UNL     1       1.599  -1.254  -0.665  1.00  0.00    -0.377 N 
ATOM     18  H   UNL     1       1.728  -1.702  -1.532  1.00  0.00     0.161 HD
BRANCH  17  19
ATOM     19  C   UNL     1       2.717  -1.166   0.255  1.00  0.00     0.188 C 
BRANCH  19  20
ATOM     20  C   UNL     1       3.325   0.184   0.127  1.00  0.00     0.122 A 
ATOM     21  C   UNL     1       3.528   0.936  -1.013  1.00  0.00     0.047 A 
ATOM     22  O   UNL     1       4.101   0.686   1.072  1.00  0.00    -0.467 OA
ATOM     23  C   UNL     1       4.646   1.734  -0.801  1.00  0.00     0.042 A 
ATOM     24  C   UNL     1       4.931   1.555   0.545  1.00  0.00     0.195 A 
ENDBRANCH  19  20
ENDBRANCH  17  19
ENDBRANCH   4  17
TORSDOF 6
