REMARK SMILES C[NH+](C)CC/C=C1/c2ccccc2COc2ccc(CC(=O)[O-])cc21
REMARK SMILES IDX 6 1 7 2 8 3 9 4 10 5 11 6 12 7 13 8 14 9 15 10 16 11 17 12
REMARK SMILES IDX 18 13 19 14 24 15 25 16 5 17 4 18 2 19 1 20 3 21 20 23 21 24
REMARK SMILES IDX 22 25 23 26
REMARK H PARENT 2 22
REMARK Flexibility Score: inf
ROOT
ATOM      1  C   UNL     1      -1.339   1.018  -0.039  1.00  0.00    -0.012 C 
ATOM      2  C   UNL     1      -0.944  -0.234  -0.096  1.00  0.00    -0.011 C 
ATOM      3  C   UNL     1      -2.009  -1.228   0.072  1.00  0.00    -0.011 A 
ATOM      4  C   UNL     1      -3.259  -0.707  -0.142  1.00  0.00     0.009 A 
ATOM      5  C   UNL     1      -4.265  -1.602  -0.485  1.00  0.00     0.001 A 
ATOM      6  C   UNL     1      -4.064  -2.963  -0.383  1.00  0.00     0.000 A 
ATOM      7  C   UNL     1      -2.931  -3.453   0.253  1.00  0.00     0.008 A 
ATOM      8  C   UNL     1      -1.897  -2.558   0.458  1.00  0.00    -0.003 A 
ATOM      9  C   UNL     1      -0.698  -3.332   0.896  1.00  0.00     0.266 C 
ATOM     10  O   UNL     1       0.456  -2.991   0.161  1.00  0.00    -0.488 OA
ATOM     11  C   UNL     1       1.097  -1.779   0.001  1.00  0.00     0.127 A 
ATOM     12  C   UNL     1       2.469  -1.826   0.154  1.00  0.00     0.047 A 
ATOM     13  C   UNL     1       3.163  -0.736  -0.314  1.00  0.00     0.008 A 
ATOM     14  C   UNL     1       2.591   0.528  -0.381  1.00  0.00    -0.042 A 
ATOM     15  C   UNL     1       1.230   0.642  -0.145  1.00  0.00     0.016 A 
ATOM     16  C   UNL     1       0.492  -0.535  -0.087  1.00  0.00     0.024 A 
ENDROOT
BRANCH   1  17
ATOM     17  C   UNL     1      -0.324   2.068   0.103  1.00  0.00     0.089 C 
BRANCH  17  18
ATOM     18  C   UNL     1      -0.868   3.452   0.240  1.00  0.00     0.265 C 
BRANCH  18  19
ATOM     19  N   UNL     1      -2.230   3.555  -0.221  1.00  0.00    -0.340 N 
ATOM     20  C   UNL     1      -3.140   3.780   0.875  1.00  0.00     0.332 C 
ATOM     21  C   UNL     1      -2.391   4.492  -1.304  1.00  0.00     0.332 C 
ATOM     22  H   UNL     1      -2.479   2.652  -0.625  1.00  0.00     0.347 HD
ENDBRANCH  18  19
ENDBRANCH  17  18
ENDBRANCH   1  17
BRANCH  14  23
ATOM     23  C   UNL     1       3.440   1.728  -0.663  1.00  0.00     0.088 C 
BRANCH  23  24
ATOM     24  C   UNL     1       4.864   1.274  -0.698  1.00  0.00     0.046 C 
ATOM     25  O   UNL     1       5.326   0.854   0.404  1.00  0.00    -0.550 OA
ATOM     26  O   UNL     1       5.231   0.551  -1.836  1.00  0.00    -0.550 OA
ENDBRANCH  23  24
ENDBRANCH  14  23
TORSDOF 5
