REMARK SMILES O=C([O-])[C@H](S)[C@@H](S)C(=O)[O-]
REMARK SMILES IDX 4 1 2 2 1 3 3 4 5 5 6 7 7 8 8 10 9 11 10 12
REMARK H PARENT 5 6 7 9
REMARK Flexibility Score: inf
ROOT
ATOM      1  C   UNL     1       0.397  -0.323   0.736  1.00  0.00     0.107 C 
ENDROOT
BRANCH   1   2
ATOM      2  C   UNL     1       1.759   0.193   0.167  1.00  0.00     0.056 C 
ATOM      3  O   UNL     1       2.685  -0.580   0.561  1.00  0.00    -0.549 OA
ATOM      4  O   UNL     1       2.047   1.544   0.409  1.00  0.00    -0.549 OA
ENDBRANCH   1   2
BRANCH   1   5
ATOM      5  S   UNL     1       0.203  -1.755  -0.510  1.00  0.00    -0.168 SA
ATOM      6  H   UNL     1       0.452  -1.298  -1.767  1.00  0.00     0.103 HD
ENDBRANCH   1   5
BRANCH   1   7
ATOM      7  C   UNL     1      -0.485   0.869   0.009  1.00  0.00     0.107 C 
BRANCH   7   8
ATOM      8  S   UNL     1      -0.244   0.409  -1.831  1.00  0.00    -0.168 SA
ATOM      9  H   UNL     1      -0.476  -0.920  -2.001  1.00  0.00     0.103 HD
ENDBRANCH   7   8
BRANCH   7  10
ATOM     10  C   UNL     1      -1.845   0.144   0.231  1.00  0.00     0.056 C 
ATOM     11  O   UNL     1      -2.286   0.434   1.380  1.00  0.00    -0.549 OA
ATOM     12  O   UNL     1      -2.232  -0.937  -0.469  1.00  0.00    -0.549 OA
ENDBRANCH   7  10
ENDBRANCH   1   7
TORSDOF 5
