REMARK SMILES CC(C)C[C@H](C[NH3+])CC(=O)[O-]
REMARK SMILES IDX 5 1 4 2 2 3 1 4 3 5 6 6 7 7 8 11 9 12 10 13 11 14
REMARK H PARENT 7 8 7 9 7 10
REMARK Flexibility Score: inf
ROOT
ATOM      1  C   UNL     1      -0.343   0.566   0.936  1.00  0.00     0.050 C 
ENDROOT
BRANCH   1   2
ATOM      2  C   UNL     1      -0.389  -0.596  -0.211  1.00  0.00     0.012 C 
BRANCH   2   3
ATOM      3  C   UNL     1      -1.808  -0.990  -0.399  1.00  0.00    -0.017 C 
ATOM      4  C   UNL     1      -2.194  -1.460  -1.660  1.00  0.00     0.007 C 
ATOM      5  C   UNL     1      -2.479  -1.579   0.792  1.00  0.00     0.007 C 
ENDBRANCH   2   3
ENDBRANCH   1   2
BRANCH   1   6
ATOM      6  C   UNL     1       0.071   1.732  -0.130  1.00  0.00     0.262 C 
BRANCH   6   7
ATOM      7  N   UNL     1      -1.096   2.609  -0.217  1.00  0.00    -0.357 N 
ATOM      8  H   UNL     1      -1.907   2.067  -0.516  1.00  0.00     0.344 HD
ATOM      9  H   UNL     1      -0.915   3.350  -0.894  1.00  0.00     0.344 HD
ATOM     10  H   UNL     1      -1.281   3.022   0.697  1.00  0.00     0.344 HD
ENDBRANCH   6   7
ENDBRANCH   1   6
BRANCH   1  11
ATOM     11  C   UNL     1       1.210   0.263   1.333  1.00  0.00     0.062 C 
BRANCH  11  12
ATOM     12  C   UNL     1       1.957   0.012   0.096  1.00  0.00     0.042 C 
ATOM     13  O   UNL     1       2.878   0.777  -0.325  1.00  0.00    -0.550 OA
ATOM     14  O   UNL     1       2.195  -1.334  -0.215  1.00  0.00    -0.550 OA
ENDBRANCH  11  12
ENDBRANCH   1  11
TORSDOF 6
