REMARK SMILES [NH3+]CCC[C@@]([NH3+])(C(=O)[O-])C(F)F
REMARK SMILES IDX 3 1 2 2 1 3 4 7 5 8 6 9 7 13 8 14 9 15 10 16 11 17 12 18
REMARK H PARENT 1 4 1 5 1 6 6 10 6 11 6 12
REMARK Flexibility Score: inf
ROOT
ATOM      1  C   UNL     1       1.621   0.024  -0.784  1.00  0.00     0.068 C 
ENDROOT
BRANCH   1   2
ATOM      2  C   UNL     1       2.888   0.676  -0.244  1.00  0.00     0.259 C 
BRANCH   2   3
ATOM      3  N   UNL     1       3.830  -0.357   0.013  1.00  0.00    -0.358 N 
ATOM      4  H   UNL     1       4.691   0.051   0.377  1.00  0.00     0.344 HD
ATOM      5  H   UNL     1       4.030  -0.858  -0.853  1.00  0.00     0.344 HD
ATOM      6  H   UNL     1       3.445  -1.006   0.700  1.00  0.00     0.344 HD
ENDBRANCH   2   3
ENDBRANCH   1   2
BRANCH   1   7
ATOM      7  C   UNL     1       0.869  -0.509   0.399  1.00  0.00     0.087 C 
BRANCH   7   8
ATOM      8  C   UNL     1      -0.590  -0.159   0.404  1.00  0.00     0.196 C 
BRANCH   8   9
ATOM      9  N   UNL     1      -1.008  -0.174   1.806  1.00  0.00    -0.343 N 
ATOM     10  H   UNL     1      -0.489   0.536   2.323  1.00  0.00     0.345 HD
ATOM     11  H   UNL     1      -0.818  -1.093   2.208  1.00  0.00     0.345 HD
ATOM     12  H   UNL     1      -2.007   0.023   1.866  1.00  0.00     0.345 HD
ENDBRANCH   8   9
BRANCH   8  13
ATOM     13  C   UNL     1      -0.875   1.201  -0.094  1.00  0.00     0.109 C 
ATOM     14  O   UNL     1      -2.025   1.674   0.152  1.00  0.00    -0.544 OA
ATOM     15  O   UNL     1       0.036   2.017  -0.721  1.00  0.00    -0.544 OA
ENDBRANCH   8  13
BRANCH   8  16
ATOM     16  C   UNL     1      -1.354  -1.190  -0.305  1.00  0.00     0.408 C 
ATOM     17  F   UNL     1      -0.711  -2.131  -0.998  1.00  0.00    -0.203 F 
ATOM     18  F   UNL     1      -2.680  -1.071  -0.412  1.00  0.00    -0.203 F 
ENDBRANCH   8  16
ENDBRANCH   7   8
ENDBRANCH   1   7
TORSDOF 7
