REMARK SMILES O=S(=O)([O-])Oc1ccc(C(c2ccc(OS(=O)(=O)[O-])cc2)c2ccccn2)cc1
REMARK SMILES IDX 10 1 9 2 6 3 7 4 29 5 8 6 28 7 5 8 2 9 1 10 3 11 4 12 11 13
REMARK SMILES IDX 12 14 21 15 13 16 20 17 14 18 15 19 16 20 17 21 18 22 19 23
REMARK SMILES IDX 22 24 23 25 27 26 24 27 26 28 25 29
REMARK H PARENT
REMARK Flexibility Score: inf
ROOT
ATOM      1  C   UNL     1       0.085  -0.719   0.566  1.00  0.00     0.098 C 
ENDROOT
BRANCH   1   2
ATOM      2  C   UNL     1       1.211   0.172   0.237  1.00  0.00    -0.034 A 
ATOM      3  C   UNL     1       3.280   2.000  -0.054  1.00  0.00     0.141 A 
ATOM      4  C   UNL     1       2.369   1.762  -1.072  1.00  0.00     0.048 A 
ATOM      5  C   UNL     1       3.273   1.093   0.999  1.00  0.00     0.048 A 
ATOM      6  C   UNL     1       1.191   1.068  -0.822  1.00  0.00     0.008 A 
ATOM      7  C   UNL     1       2.080   0.473   1.279  1.00  0.00     0.008 A 
BRANCH   3   8
ATOM      8  O   UNL     1       4.340   2.896  -0.196  1.00  0.00    -0.391 OA
BRANCH   8   9
ATOM      9  S   UNL     1       5.957   2.409  -0.224  1.00  0.00     0.262 S 
ATOM     10  O   UNL     1       6.085   1.184   0.629  1.00  0.00    -0.200 OA
ATOM     11  O   UNL     1       6.432   2.159  -1.616  1.00  0.00    -0.200 OA
ATOM     12  O   UNL     1       6.922   3.609   0.463  1.00  0.00    -0.716 OA
ENDBRANCH   8   9
ENDBRANCH   3   8
ENDBRANCH   1   2
BRANCH   1  13
ATOM     13  C   UNL     1      -1.204  -0.294  -0.002  1.00  0.00    -0.034 A 
ATOM     14  C   UNL     1      -2.203  -1.185  -0.369  1.00  0.00     0.008 A 
ATOM     15  C   UNL     1      -1.634   0.989   0.299  1.00  0.00     0.008 A 
ATOM     16  C   UNL     1      -3.545  -0.897  -0.151  1.00  0.00     0.048 A 
ATOM     17  C   UNL     1      -2.982   1.313   0.388  1.00  0.00     0.048 A 
ATOM     18  C   UNL     1      -3.922   0.293   0.461  1.00  0.00     0.141 A 
BRANCH  18  19
ATOM     19  O   UNL     1      -5.207   0.490   0.945  1.00  0.00    -0.391 OA
BRANCH  19  20
ATOM     20  S   UNL     1      -6.467   0.470  -0.206  1.00  0.00     0.262 S 
ATOM     21  O   UNL     1      -7.622   1.206   0.389  1.00  0.00    -0.200 OA
ATOM     22  O   UNL     1      -6.793  -0.944  -0.549  1.00  0.00    -0.200 OA
ATOM     23  O   UNL     1      -5.875   1.238  -1.582  1.00  0.00    -0.716 OA
ENDBRANCH  19  20
ENDBRANCH  18  19
ENDBRANCH   1  13
BRANCH   1  24
ATOM     24  C   UNL     1       0.395  -2.141   0.352  1.00  0.00     0.052 A 
ATOM     25  C   UNL     1      -0.570  -3.064   0.731  1.00  0.00     0.025 A 
ATOM     26  N   UNL     1       1.674  -2.524   0.588  1.00  0.00    -0.260 NA
ATOM     27  C   UNL     1      -0.284  -4.418   0.615  1.00  0.00     0.003 A 
ATOM     28  C   UNL     1       1.993  -3.840   0.583  1.00  0.00     0.111 A 
ATOM     29  C   UNL     1       1.022  -4.800   0.341  1.00  0.00     0.020 A 
ENDBRANCH   1  24
TORSDOF 7
