REMARK SMILES C[C@@H](C(=O)[O-])c1cccc(C(=O)c2ccccc2)c1
REMARK SMILES IDX 6 1 7 2 8 3 9 4 10 5 19 6 2 7 1 8 3 9 4 10 5 11 11 12 12 13
REMARK SMILES IDX 13 14 14 15 18 16 15 17 17 18 16 19
REMARK H PARENT
REMARK Flexibility Score: inf
ROOT
ATOM      1  C   UNL     1      -2.069   0.348   0.052  1.00  0.00    -0.039 A 
ATOM      2  C   UNL     1      -1.985   0.112  -1.264  1.00  0.00     0.004 A 
ATOM      3  C   UNL     1      -0.709  -0.199  -1.727  1.00  0.00     0.001 A 
ATOM      4  C   UNL     1       0.339  -0.381  -0.830  1.00  0.00     0.012 A 
ATOM      5  C   UNL     1       0.244   0.307   0.376  1.00  0.00     0.023 A 
ATOM      6  C   UNL     1      -1.018   0.622   0.877  1.00  0.00     0.016 A 
ENDROOT
BRANCH   1   7
ATOM      7  C   UNL     1      -3.546   0.510   0.724  1.00  0.00     0.062 C 
ATOM      8  C   UNL     1      -4.036   1.587  -0.460  1.00  0.00     0.019 C 
BRANCH   7   9
ATOM      9  C   UNL     1      -4.137  -0.815  -0.033  1.00  0.00     0.049 C 
ATOM     10  O   UNL     1      -4.352  -0.758  -1.230  1.00  0.00    -0.550 OA
ATOM     11  O   UNL     1      -4.393  -1.870   0.816  1.00  0.00    -0.550 OA
ENDBRANCH   7   9
ENDBRANCH   1   7
BRANCH   5  12
ATOM     12  C   UNL     1       1.446   0.842   1.031  1.00  0.00     0.193 C 
ATOM     13  O   UNL     1       1.463   2.087   1.225  1.00  0.00    -0.289 OA
BRANCH  12  14
ATOM     14  C   UNL     1       2.733   0.250   0.639  1.00  0.00     0.022 A 
ATOM     15  C   UNL     1       3.633   0.956  -0.145  1.00  0.00     0.012 A 
ATOM     16  C   UNL     1       2.762  -1.128   0.487  1.00  0.00     0.012 A 
ATOM     17  C   UNL     1       4.806   0.331  -0.539  1.00  0.00     0.001 A 
ATOM     18  C   UNL     1       3.845  -1.777  -0.089  1.00  0.00     0.001 A 
ATOM     19  C   UNL     1       4.975  -1.025  -0.349  1.00  0.00     0.000 A 
ENDBRANCH  12  14
ENDBRANCH   5  12
TORSDOF 4
