REMARK SMILES Cc1cccc(Nc2ccccc2C(=O)[O-])c1C
REMARK SMILES IDX 8 1 9 2 10 3 11 4 12 5 13 6 7 7 6 9 1 10 2 11 3 12 17 13
REMARK SMILES IDX 4 14 18 15 5 16 14 17 15 18 16 19
REMARK H PARENT 7 8
REMARK Flexibility Score: inf
ROOT
ATOM      1  C   UNL     1      -1.145  -0.587  -0.436  1.00  0.00     0.048 A 
ATOM      2  C   UNL     1      -1.099  -1.758   0.290  1.00  0.00     0.027 A 
ATOM      3  C   UNL     1      -2.260  -2.284   0.846  1.00  0.00     0.002 A 
ATOM      4  C   UNL     1      -3.453  -1.635   0.552  1.00  0.00     0.001 A 
ATOM      5  C   UNL     1      -3.386  -0.292   0.209  1.00  0.00     0.012 A 
ATOM      6  C   UNL     1      -2.194   0.292  -0.204  1.00  0.00     0.021 A 
ENDROOT
BRANCH   1   7
ATOM      7  N   UNL     1      -0.082  -0.096  -1.230  1.00  0.00    -0.355 N 
ATOM      8  H   UNL     1      -0.215  -0.026  -2.203  1.00  0.00     0.167 HD
BRANCH   7   9
ATOM      9  C   UNL     1       1.164   0.297  -0.690  1.00  0.00     0.042 A 
ATOM     10  C   UNL     1       3.842  -1.640   1.023  1.00  0.00     0.044 C 
ATOM     11  C   UNL     1       3.134  -0.458   0.453  1.00  0.00    -0.046 A 
ATOM     12  C   UNL     1       3.416   0.822   0.907  1.00  0.00     0.004 A 
ATOM     13  C   UNL     1       2.183  -0.637  -0.544  1.00  0.00    -0.025 A 
ATOM     14  C   UNL     1       2.621   1.859   0.433  1.00  0.00     0.002 A 
ATOM     15  C   UNL     1       2.204  -1.865  -1.395  1.00  0.00     0.047 C 
ATOM     16  C   UNL     1       1.376   1.534  -0.091  1.00  0.00     0.026 A 
ENDBRANCH   7   9
ENDBRANCH   1   7
BRANCH   6  17
ATOM     17  C   UNL     1      -1.972   1.742  -0.136  1.00  0.00     0.074 C 
ATOM     18  O   UNL     1      -2.341   2.421  -1.135  1.00  0.00    -0.545 OA
ATOM     19  O   UNL     1      -2.006   2.285   1.149  1.00  0.00    -0.545 OA
ENDBRANCH   6  17
TORSDOF 3
