REMARK SMILES [NH3+][C@@H](Cc1ccc(N(CCCl)CCCl)cc1)C(=O)[O-]
REMARK SMILES IDX 4 1 5 2 6 3 7 4 15 5 16 6 3 7 2 8 1 9 17 13 18 14 19 15 8 16
REMARK SMILES IDX 9 17 10 18 11 19 12 20 13 21 14 22
REMARK H PARENT 1 10 1 11 1 12
REMARK Flexibility Score: inf
ROOT
ATOM      1  C   UNL     1      -1.127  -0.348  -0.507  1.00  0.00    -0.042 A 
ATOM      2  C   UNL     1      -0.657   0.950  -0.341  1.00  0.00     0.006 A 
ATOM      3  C   UNL     1       0.700   1.111  -0.088  1.00  0.00     0.026 A 
ATOM      4  C   UNL     1       1.506  -0.014   0.040  1.00  0.00     0.037 A 
ATOM      5  C   UNL     1       1.039  -1.266  -0.300  1.00  0.00     0.026 A 
ATOM      6  C   UNL     1      -0.231  -1.358  -0.840  1.00  0.00     0.006 A 
ENDROOT
BRANCH   1   7
ATOM      7  C   UNL     1      -2.564  -0.626  -0.844  1.00  0.00     0.107 C 
BRANCH   7   8
ATOM      8  C   UNL     1      -3.374   0.389   0.172  1.00  0.00     0.232 C 
BRANCH   8   9
ATOM      9  N   UNL     1      -3.243  -0.622   1.376  1.00  0.00    -0.350 N 
ATOM     10  H   UNL     1      -2.346  -0.483   1.841  1.00  0.00     0.345 HD
ATOM     11  H   UNL     1      -3.300  -1.578   1.025  1.00  0.00     0.345 HD
ATOM     12  H   UNL     1      -3.999  -0.458   2.041  1.00  0.00     0.345 HD
ENDBRANCH   8   9
BRANCH   8  13
ATOM     13  C   UNL     1      -4.842  -0.166  -0.226  1.00  0.00     0.099 C 
ATOM     14  O   UNL     1      -5.011  -0.352  -1.457  1.00  0.00    -0.544 OA
ATOM     15  O   UNL     1      -5.749   0.766   0.276  1.00  0.00    -0.544 OA
ENDBRANCH   8  13
ENDBRANCH   7   8
ENDBRANCH   1   7
BRANCH   4  16
ATOM     16  N   UNL     1       2.879   0.191   0.293  1.00  0.00    -0.369 N 
BRANCH  16  17
ATOM     17  C   UNL     1       3.324   0.443   1.656  1.00  0.00     0.132 C 
BRANCH  17  18
ATOM     18  C   UNL     1       2.298   0.071   2.683  1.00  0.00     0.131 C 
ATOM     19  Cl  UNL     1       2.841  -1.317   3.672  1.00  0.00    -0.125 Cl
ENDBRANCH  17  18
ENDBRANCH  16  17
BRANCH  16  20
ATOM     20  C   UNL     1       3.869  -0.377  -0.589  1.00  0.00     0.132 C 
BRANCH  20  21
ATOM     21  C   UNL     1       3.456  -0.222  -2.029  1.00  0.00     0.131 C 
ATOM     22  Cl  UNL     1       4.887   0.233  -2.945  1.00  0.00    -0.125 Cl
ENDBRANCH  20  21
ENDBRANCH  16  20
ENDBRANCH   4  16
TORSDOF 9
