REMARK SMILES [NH3+]C[C@H]1CC[C@@H](C(=O)[O-])CC1
REMARK SMILES IDX 3 1 4 2 5 3 6 4 10 5 11 6 2 7 1 8 7 12 8 13 9 14
REMARK H PARENT 1 9 1 10 1 11
REMARK Flexibility Score: inf
ROOT
ATOM      1  C   UNL     1      -1.763   0.450   0.741  1.00  0.00     0.044 C 
ATOM      2  C   UNL     1      -0.815  -0.675   1.443  1.00  0.00     0.010 C 
ATOM      3  C   UNL     1       0.480  -0.076   1.779  1.00  0.00     0.010 C 
ATOM      4  C   UNL     1       1.049   0.789   0.513  1.00  0.00     0.035 C 
ATOM      5  C   UNL     1       0.322  -0.163  -0.600  1.00  0.00     0.010 C 
ATOM      6  C   UNL     1      -1.056   0.345  -0.723  1.00  0.00     0.010 C 
ENDROOT
BRANCH   1   7
ATOM      7  C   UNL     1      -2.887  -0.676   0.365  1.00  0.00     0.262 C 
BRANCH   7   8
ATOM      8  N   UNL     1      -3.910   0.071  -0.346  1.00  0.00    -0.357 N 
ATOM      9  H   UNL     1      -4.661  -0.561  -0.623  1.00  0.00     0.344 HD
ATOM     10  H   UNL     1      -3.502   0.499  -1.177  1.00  0.00     0.344 HD
ATOM     11  H   UNL     1      -4.284   0.798   0.263  1.00  0.00     0.344 HD
ENDBRANCH   7   8
ENDBRANCH   1   7
BRANCH   4  12
ATOM     12  C   UNL     1       2.422  -0.037   0.511  1.00  0.00     0.044 C 
ATOM     13  O   UNL     1       3.238   0.531   1.304  1.00  0.00    -0.550 OA
ATOM     14  O   UNL     1       2.920  -0.559  -0.632  1.00  0.00    -0.550 OA
ENDBRANCH   4  12
TORSDOF 3
