REMARK SMILES CC1=C(CC(=O)[O-])c2cc(F)ccc2/C1=C\c1ccc([S@](C)=O)cc1
REMARK SMILES IDX 1 1 2 2 3 3 8 4 9 5 10 6 11 7 12 8 13 9 14 10 15 11 16 12
REMARK SMILES IDX 4 13 5 14 6 15 7 16 17 17 18 18 25 19 19 20 24 21 20 22
REMARK SMILES IDX 21 23 22 24 23 25
REMARK H PARENT
REMARK Flexibility Score: inf
ROOT
ATOM      1  C   UNL     1      -2.142  -2.599  -2.127  1.00  0.00     0.045 C 
ATOM      2  C   UNL     1      -1.838  -1.844  -0.882  1.00  0.00    -0.039 C 
ATOM      3  C   UNL     1      -2.697  -1.097  -0.187  1.00  0.00    -0.031 C 
ATOM      4  C   UNL     1      -2.035  -0.615   1.032  1.00  0.00    -0.011 A 
ATOM      5  C   UNL     1      -2.256   0.449   1.898  1.00  0.00     0.048 A 
ATOM      6  C   UNL     1      -1.263   0.903   2.757  1.00  0.00     0.123 A 
ATOM      7  F   UNL     1      -1.260   2.172   3.253  1.00  0.00    -0.207 F 
ATOM      8  C   UNL     1      -0.245  -0.000   3.035  1.00  0.00     0.040 A 
ATOM      9  C   UNL     1       0.167  -0.858   2.027  1.00  0.00     0.012 A 
ATOM     10  C   UNL     1      -0.757  -1.161   1.048  1.00  0.00    -0.010 A 
ATOM     11  C   UNL     1      -0.529  -1.818  -0.244  1.00  0.00    -0.014 C 
ATOM     12  C   UNL     1       0.662  -2.153  -0.740  1.00  0.00     0.017 C 
ENDROOT
BRANCH   3  13
ATOM     13  C   UNL     1      -3.914  -0.481  -0.761  1.00  0.00     0.089 C 
BRANCH  13  14
ATOM     14  C   UNL     1      -3.925   1.004  -0.597  1.00  0.00     0.046 C 
ATOM     15  O   UNL     1      -3.804   1.728  -1.630  1.00  0.00    -0.550 OA
ATOM     16  O   UNL     1      -4.753   1.520   0.402  1.00  0.00    -0.550 OA
ENDBRANCH  13  14
ENDBRANCH   3  13
BRANCH  12  17
ATOM     17  C   UNL     1       1.817  -1.299  -0.433  1.00  0.00    -0.025 A 
ATOM     18  C   UNL     1       2.881  -1.701   0.324  1.00  0.00     0.009 A 
ATOM     19  C   UNL     1       2.024  -0.242  -1.310  1.00  0.00     0.009 A 
ATOM     20  C   UNL     1       3.834  -0.736   0.628  1.00  0.00     0.018 A 
ATOM     21  C   UNL     1       2.797   0.821  -0.886  1.00  0.00     0.018 A 
ATOM     22  C   UNL     1       3.735   0.532   0.095  1.00  0.00     0.039 A 
BRANCH  22  23
ATOM     23  S   UNL     1       4.777   1.875   0.722  1.00  0.00     0.050 S 
ATOM     24  C   UNL     1       3.489   3.087   1.230  1.00  0.00     0.129 C 
ATOM     25  O   UNL     1       5.237   2.514  -0.621  1.00  0.00    -0.255 OA
ENDBRANCH  22  23
ENDBRANCH  12  17
TORSDOF 4
