REMARK SMILES C[C@]12CC[C@@H]3c4ccc(OS(=O)(=O)[O-])cc4CC[C@H]3[C@@H]1CCC2=O
REMARK SMILES IDX 10 1 9 2 1 3 2 4 3 5 20 6 23 7 4 8 19 9 21 10 22 11 24 12
REMARK SMILES IDX 5 13 18 14 6 15 17 16 7 17 16 18 8 19 15 20 11 21 12 22
REMARK SMILES IDX 13 23 14 24
REMARK H PARENT
REMARK Flexibility Score: inf
ROOT
ATOM      1  O   UNL     1       4.162  -0.662   1.446  1.00  0.00    -0.391 OA
ENDROOT
BRANCH   1   2
ATOM      2  C   UNL     1       3.022  -0.403   0.681  1.00  0.00     0.141 A 
ATOM      3  C   UNL     1      -3.656  -0.575   1.036  1.00  0.00     0.020 C 
ATOM      4  C   UNL     1      -3.732  -0.571  -0.442  1.00  0.00     0.029 C 
ATOM      5  C   UNL     1      -3.006  -1.607  -1.176  1.00  0.00     0.015 C 
ATOM      6  C   UNL     1      -3.039   0.822  -0.967  1.00  0.00     0.006 C 
ATOM      7  C   UNL     1      -5.078  -0.211  -0.874  1.00  0.00     0.139 C 
ATOM      8  C   UNL     1      -1.609  -1.676  -0.561  1.00  0.00     0.010 C 
ATOM      9  C   UNL     1      -1.725   0.645   0.106  1.00  0.00     0.001 C 
ATOM     10  C   UNL     1      -3.920   1.658   0.138  1.00  0.00     0.013 C 
ATOM     11  C   UNL     1      -5.272   1.202  -0.402  1.00  0.00     0.076 C 
ATOM     12  O   UNL     1      -6.033  -0.987  -0.858  1.00  0.00    -0.299 OA
ATOM     13  C   UNL     1      -0.876  -0.280  -1.054  1.00  0.00     0.023 C 
ATOM     14  C   UNL     1      -1.036   2.010  -0.400  1.00  0.00     0.009 C 
ATOM     15  C   UNL     1       0.368  -0.500  -0.038  1.00  0.00    -0.041 A 
ATOM     16  C   UNL     1       0.278   2.007   0.322  1.00  0.00     0.036 C 
ATOM     17  C   UNL     1       1.288  -1.411  -0.549  1.00  0.00     0.008 A 
ATOM     18  C   UNL     1       0.838   0.655   0.537  1.00  0.00    -0.041 A 
ATOM     19  C   UNL     1       2.655  -1.280  -0.333  1.00  0.00     0.048 A 
ATOM     20  C   UNL     1       2.136   0.608   1.034  1.00  0.00     0.052 A 
ENDBRANCH   1   2
BRANCH   1  21
ATOM     21  S   UNL     1       5.699  -0.448   0.737  1.00  0.00     0.262 S 
ATOM     22  O   UNL     1       6.628  -0.026   1.838  1.00  0.00    -0.200 OA
ATOM     23  O   UNL     1       5.678   0.582  -0.347  1.00  0.00    -0.200 OA
ATOM     24  O   UNL     1       6.230  -1.908   0.127  1.00  0.00    -0.716 OA
ENDBRANCH   1  21
TORSDOF 2
