REMARK SMILES CC(=O)NCCCS(=O)(=O)[O-]
REMARK SMILES IDX 6 1 5 2 4 3 1 4 2 5 3 6 7 8 8 9 9 10 10 11 11 12
REMARK H PARENT 4 7
REMARK Flexibility Score: inf
ROOT
ATOM      1  C   UNL     1      -0.385   1.085  -0.385  1.00  0.00     0.036 C 
ENDROOT
BRANCH   1   2
ATOM      2  C   UNL     1       0.874   0.883  -1.219  1.00  0.00     0.117 C 
BRANCH   2   3
ATOM      3  N   UNL     1       1.603  -0.187  -0.541  1.00  0.00    -0.356 N 
ATOM      4  C   UNL     1       3.807  -0.226   0.773  1.00  0.00     0.114 C 
ATOM      5  C   UNL     1       3.027  -0.238  -0.503  1.00  0.00     0.216 C 
ATOM      6  O   UNL     1       3.581   0.091  -1.598  1.00  0.00    -0.275 OA
ATOM      7  H   UNL     1       1.091  -0.899  -0.093  1.00  0.00     0.163 HD
ENDBRANCH   2   3
ENDBRANCH   1   2
BRANCH   1   8
ATOM      8  C   UNL     1      -0.833  -0.251   0.199  1.00  0.00     0.124 C 
BRANCH   8   9
ATOM      9  S   UNL     1      -2.550  -0.142   0.679  1.00  0.00     0.095 S 
ATOM     10  O   UNL     1      -3.152   1.153   0.192  1.00  0.00    -0.243 OA
ATOM     11  O   UNL     1      -3.256  -1.311   0.052  1.00  0.00    -0.243 OA
ATOM     12  O   UNL     1      -2.717  -0.201   2.352  1.00  0.00    -0.748 OA
ENDBRANCH   8   9
ENDBRANCH   1   8
TORSDOF 4
