REMARK SMILES CC(C)n1c(/C=C/[C@@H](O)C[C@@H](O)CC(=O)[O-])c(-c2ccc(F)cc2)c2ccccc21
REMARK SMILES IDX 10 1 8 2 7 3 6 4 5 5 4 6 30 7 17 8 25 9 29 10 26 11 28 12
REMARK SMILES IDX 27 13 2 14 1 15 3 16 18 17 19 18 24 19 20 20 23 21 21 22
REMARK SMILES IDX 22 23 9 24 11 26 12 27 13 29 14 30 15 31 16 32
REMARK H PARENT 9 25 12 28
REMARK Flexibility Score: inf
ROOT
ATOM      1  C   UNL     1       3.765  -1.348  -2.077  1.00  0.00     0.068 C 
ENDROOT
BRANCH   1   2
ATOM      2  C   UNL     1       2.296  -0.784  -2.671  1.00  0.00     0.140 C 
BRANCH   2   3
ATOM      3  C   UNL     1       1.597  -0.830  -1.167  1.00  0.00     0.006 C 
ATOM      4  C   UNL     1       0.276  -0.619  -1.250  1.00  0.00     0.025 C 
BRANCH   4   5
ATOM      5  C   UNL     1      -0.426  -0.316  -0.018  1.00  0.00     0.050 A 
ATOM      6  N   UNL     1      -0.274   0.832   0.691  1.00  0.00    -0.338 N 
ATOM      7  C   UNL     1      -1.077   0.769   1.783  1.00  0.00     0.049 A 
ATOM      8  C   UNL     1      -1.512  -1.038   0.476  1.00  0.00     0.015 A 
ATOM      9  C   UNL     1      -1.623  -0.512   1.763  1.00  0.00     0.008 A 
ATOM     10  C   UNL     1      -1.575   1.748   2.638  1.00  0.00     0.027 A 
ATOM     11  C   UNL     1      -2.535  -0.767   2.761  1.00  0.00     0.011 A 
ATOM     12  C   UNL     1      -2.769   1.515   3.291  1.00  0.00     0.002 A 
ATOM     13  C   UNL     1      -2.992   0.188   3.646  1.00  0.00     0.001 A 
BRANCH   6  14
ATOM     14  C   UNL     1       0.201   2.097   0.127  1.00  0.00     0.081 C 
ATOM     15  C   UNL     1       0.538   3.030   1.124  1.00  0.00     0.031 C 
ATOM     16  C   UNL     1      -0.898   2.719  -0.735  1.00  0.00     0.031 C 
ENDBRANCH   6  14
BRANCH   8  17
ATOM     17  C   UNL     1      -2.588  -1.642  -0.343  1.00  0.00    -0.015 A 
ATOM     18  C   UNL     1      -3.826  -1.947   0.214  1.00  0.00     0.012 A 
ATOM     19  C   UNL     1      -2.707  -1.344  -1.702  1.00  0.00     0.012 A 
ATOM     20  C   UNL     1      -5.028  -1.530  -0.358  1.00  0.00     0.040 A 
ATOM     21  C   UNL     1      -3.891  -0.831  -2.233  1.00  0.00     0.040 A 
ATOM     22  C   UNL     1      -4.998  -0.621  -1.413  1.00  0.00     0.123 A 
ATOM     23  F   UNL     1      -5.660   0.573  -1.382  1.00  0.00    -0.207 F 
ENDBRANCH   8  17
ENDBRANCH   4   5
ENDBRANCH   2   3
BRANCH   2  24
ATOM     24  O   UNL     1       2.626   0.728  -2.531  1.00  0.00    -0.389 OA
ATOM     25  H   UNL     1       3.014   0.895  -1.658  1.00  0.00     0.211 HD
ENDBRANCH   2  24
ENDBRANCH   1   2
BRANCH   1  26
ATOM     26  C   UNL     1       4.384   0.044  -1.386  1.00  0.00     0.123 C 
BRANCH  26  27
ATOM     27  O   UNL     1       3.794  -0.315   0.000  1.00  0.00    -0.393 OA
ATOM     28  H   UNL     1       3.969  -1.250   0.194  1.00  0.00     0.210 HD
ENDBRANCH  26  27
BRANCH  26  29
ATOM     29  C   UNL     1       5.810  -0.759  -1.024  1.00  0.00     0.084 C 
BRANCH  29  30
ATOM     30  C   UNL     1       6.232  -0.061   0.214  1.00  0.00     0.044 C 
ATOM     31  O   UNL     1       6.867  -0.689   1.111  1.00  0.00    -0.550 OA
ATOM     32  O   UNL     1       5.995   1.284   0.452  1.00  0.00    -0.550 OA
ENDBRANCH  29  30
ENDBRANCH  26  29
ENDBRANCH   1  26
TORSDOF 10
