REMARK SMILES Cc1ccc(C)c(OCCCC(C)(C)C(=O)[O-])c1
REMARK SMILES IDX 10 1 9 2 8 3 7 4 1 5 2 6 3 7 18 8 4 9 5 10 6 11 11 12 12 13
REMARK SMILES IDX 13 14 14 15 15 16 16 17 17 18
REMARK H PARENT
REMARK Flexibility Score: inf
ROOT
ATOM      1  C   UNL     1       1.434  -0.543  -0.202  1.00  0.00     0.042 C 
ENDROOT
BRANCH   1   2
ATOM      2  C   UNL     1       0.166   0.293  -0.198  1.00  0.00     0.229 C 
BRANCH   2   3
ATOM      3  O   UNL     1      -0.841  -0.527   0.376  1.00  0.00    -0.493 OA
BRANCH   3   4
ATOM      4  C   UNL     1      -2.148  -0.161   0.149  1.00  0.00     0.122 A 
ATOM      5  C   UNL     1      -4.042   2.953  -0.536  1.00  0.00     0.044 C 
ATOM      6  C   UNL     1      -3.734   1.560  -0.138  1.00  0.00    -0.047 A 
ATOM      7  C   UNL     1      -4.716   0.580  -0.209  1.00  0.00     0.004 A 
ATOM      8  C   UNL     1      -2.490   1.165   0.315  1.00  0.00     0.050 A 
ATOM      9  C   UNL     1      -4.349  -0.735  -0.447  1.00  0.00     0.007 A 
ATOM     10  C   UNL     1      -3.042  -1.120  -0.276  1.00  0.00    -0.009 A 
ATOM     11  C   UNL     1      -2.570  -2.523  -0.412  1.00  0.00     0.048 C 
ENDBRANCH   3   4
ENDBRANCH   2   3
ENDBRANCH   1   2
BRANCH   1  12
ATOM     12  C   UNL     1       2.267  -0.038   0.970  1.00  0.00     0.016 C 
BRANCH  12  13
ATOM     13  C   UNL     1       3.593   0.410   0.367  1.00  0.00     0.004 C 
ATOM     14  C   UNL     1       3.313   1.345  -0.786  1.00  0.00     0.017 C 
ATOM     15  C   UNL     1       4.428   1.036   1.444  1.00  0.00     0.017 C 
BRANCH  13  16
ATOM     16  C   UNL     1       4.213  -0.811  -0.214  1.00  0.00     0.047 C 
ATOM     17  O   UNL     1       4.875  -1.536   0.579  1.00  0.00    -0.550 OA
ATOM     18  O   UNL     1       3.642  -1.348  -1.355  1.00  0.00    -0.550 OA
ENDBRANCH  13  16
ENDBRANCH  12  13
ENDBRANCH   1  12
TORSDOF 6
