REMARK SMILES CCCc1c2oc(C(=O)[O-])cc(=O)c2cc2c(=O)cc(C(=O)[O-])n(CC)c12
REMARK SMILES IDX 4 1 5 2 6 3 7 4 11 5 12 6 13 7 14 8 15 9 16 10 17 11 18 12
REMARK SMILES IDX 19 13 20 14 24 15 27 16 3 17 2 18 1 19 25 20 26 21 8 22 9 23
REMARK SMILES IDX 10 24 21 25 22 26 23 27
REMARK H PARENT
REMARK Flexibility Score: inf
ROOT
ATOM      1  C   UNL     1      -0.179  -0.610  -0.274  1.00  0.00     0.020 A 
ATOM      2  C   UNL     1      -1.401   0.032  -0.445  1.00  0.00     0.143 A 
ATOM      3  O   UNL     1      -2.472  -0.573   0.036  1.00  0.00    -0.454 OA
ATOM      4  C   UNL     1      -3.539   0.102   0.433  1.00  0.00     0.154 A 
ATOM      5  C   UNL     1      -3.748   1.403  -0.008  1.00  0.00     0.101 A 
ATOM      6  C   UNL     1      -2.684   2.001  -0.672  1.00  0.00     0.193 A 
ATOM      7  O   UNL     1      -2.751   3.261  -0.804  1.00  0.00    -0.289 OA
ATOM      8  C   UNL     1      -1.432   1.398  -0.698  1.00  0.00     0.066 A 
ATOM      9  C   UNL     1      -0.268   2.151  -0.607  1.00  0.00     0.030 A 
ATOM     10  C   UNL     1       0.923   1.541  -0.229  1.00  0.00     0.047 A 
ATOM     11  C   UNL     1       1.837   2.228   0.560  1.00  0.00     0.190 A 
ATOM     12  O   UNL     1       1.601   3.389   1.001  1.00  0.00    -0.289 OA
ATOM     13  C   UNL     1       3.046   1.585   0.754  1.00  0.00     0.080 A 
ATOM     14  C   UNL     1       3.209   0.287   0.312  1.00  0.00     0.068 A 
ATOM     15  N   UNL     1       2.147  -0.507   0.030  1.00  0.00    -0.339 N 
ATOM     16  C   UNL     1       0.978   0.153  -0.162  1.00  0.00     0.059 A 
ENDROOT
BRANCH   1  17
ATOM     17  C   UNL     1      -0.073  -2.080  -0.239  1.00  0.00     0.041 C 
BRANCH  17  18
ATOM     18  C   UNL     1      -0.699  -2.582   1.030  1.00  0.00     0.002 C 
ATOM     19  C   UNL     1      -0.447  -4.060   1.170  1.00  0.00     0.004 C 
ENDBRANCH  17  18
ENDBRANCH   1  17
BRANCH  15  20
ATOM     20  C   UNL     1       2.313  -1.779  -0.669  1.00  0.00     0.119 C 
ATOM     21  C   UNL     1       3.145  -2.752   0.120  1.00  0.00     0.027 C 
ENDBRANCH  15  20
BRANCH   4  22
ATOM     22  C   UNL     1      -4.663  -0.718   0.903  1.00  0.00     0.107 C 
ATOM     23  O   UNL     1      -5.091  -1.576   0.073  1.00  0.00    -0.542 OA
ATOM     24  O   UNL     1      -4.587  -1.145   2.231  1.00  0.00    -0.542 OA
ENDBRANCH   4  22
BRANCH  14  25
ATOM     25  C   UNL     1       4.499  -0.365   0.485  1.00  0.00     0.088 C 
ATOM     26  O   UNL     1       4.857  -0.673   1.659  1.00  0.00    -0.543 OA
ATOM     27  O   UNL     1       5.478  -0.111  -0.480  1.00  0.00    -0.543 OA
ENDBRANCH  14  25
TORSDOF 5
