REMARK SMILES [NH3+]CC1(CC(=O)[O-])CCCCC1
REMARK SMILES IDX 3 1 8 2 9 3 10 4 11 5 12 6 2 7 1 8 4 12 5 13 6 14 7 15
REMARK H PARENT 1 9 1 10 1 11
REMARK Flexibility Score: inf
ROOT
ATOM      1  C   UNL     1      -0.111   0.624   0.167  1.00  0.00     0.025 C 
ATOM      2  C   UNL     1      -0.356  -0.216  -1.040  1.00  0.00     0.013 C 
ATOM      3  C   UNL     1      -1.745  -0.775  -1.139  1.00  0.00     0.001 C 
ATOM      4  C   UNL     1      -1.960  -1.593   0.108  1.00  0.00     0.000 C 
ATOM      5  C   UNL     1      -1.989  -0.674   1.271  1.00  0.00     0.001 C 
ATOM      6  C   UNL     1      -1.065   0.463   1.283  1.00  0.00     0.013 C 
ENDROOT
BRANCH   1   7
ATOM      7  C   UNL     1      -0.123   2.106  -0.207  1.00  0.00     0.266 C 
BRANCH   7   8
ATOM      8  N   UNL     1      -1.209   2.447  -1.080  1.00  0.00    -0.357 N 
ATOM      9  H   UNL     1      -1.171   3.442  -1.298  1.00  0.00     0.344 HD
ATOM     10  H   UNL     1      -2.095   2.233  -0.621  1.00  0.00     0.344 HD
ATOM     11  H   UNL     1      -1.134   1.907  -1.943  1.00  0.00     0.344 HD
ENDBRANCH   7   8
ENDBRANCH   1   7
BRANCH   1  12
ATOM     12  C   UNL     1       1.296   0.409   0.725  1.00  0.00     0.065 C 
BRANCH  12  13
ATOM     13  C   UNL     1       1.996  -0.709   0.057  1.00  0.00     0.042 C 
ATOM     14  O   UNL     1       2.585  -0.491  -1.045  1.00  0.00    -0.550 OA
ATOM     15  O   UNL     1       2.682  -1.591   0.901  1.00  0.00    -0.550 OA
ENDBRANCH  12  13
ENDBRANCH   1  12
TORSDOF 4
