REMARK SMILES C[C@H](C(=O)[O-])c1cccc(Oc2ccccc2)c1
REMARK SMILES IDX 6 1 7 2 8 3 9 4 10 5 18 6 2 7 1 8 3 9 4 10 5 11 11 12 12 13
REMARK SMILES IDX 13 14 17 15 14 16 16 17 15 18
REMARK H PARENT
REMARK Flexibility Score: inf
ROOT
ATOM      1  C   UNL     1      -2.201   0.468   0.695  1.00  0.00    -0.036 A 
ATOM      2  C   UNL     1      -1.864   1.762   0.314  1.00  0.00     0.004 A 
ATOM      3  C   UNL     1      -0.510   2.071   0.345  1.00  0.00     0.004 A 
ATOM      4  C   UNL     1       0.397   1.112   0.783  1.00  0.00     0.047 A 
ATOM      5  C   UNL     1       0.028  -0.211   0.582  1.00  0.00     0.127 A 
ATOM      6  C   UNL     1      -1.318  -0.510   0.421  1.00  0.00     0.051 A 
ENDROOT
BRANCH   1   7
ATOM      7  C   UNL     1      -3.761   0.231   0.367  1.00  0.00     0.062 C 
ATOM      8  C   UNL     1      -3.769  -1.301   0.977  1.00  0.00     0.019 C 
BRANCH   7   9
ATOM      9  C   UNL     1      -3.482  -0.224  -1.153  1.00  0.00     0.049 C 
ATOM     10  O   UNL     1      -2.901  -1.269  -1.385  1.00  0.00    -0.550 OA
ATOM     11  O   UNL     1      -3.522   0.899  -1.975  1.00  0.00    -0.550 OA
ENDBRANCH   7   9
ENDBRANCH   1   7
BRANCH   5  12
ATOM     12  O   UNL     1       1.019  -1.162   0.533  1.00  0.00    -0.457 OA
BRANCH  12  13
ATOM     13  C   UNL     1       2.334  -0.824   0.307  1.00  0.00     0.127 A 
ATOM     14  C   UNL     1       2.737   0.343  -0.333  1.00  0.00     0.047 A 
ATOM     15  C   UNL     1       3.383  -1.574   0.826  1.00  0.00     0.047 A 
ATOM     16  C   UNL     1       3.843   1.029   0.157  1.00  0.00     0.004 A 
ATOM     17  C   UNL     1       4.686  -1.102   0.798  1.00  0.00     0.004 A 
ATOM     18  C   UNL     1       4.901   0.260   0.618  1.00  0.00     0.000 A 
ENDBRANCH  12  13
ENDBRANCH   5  12
TORSDOF 4
