REMARK SMILES O=C([O-])CCNC(=O)c1ccc(/N=N/c2ccc(O)c(C(=O)[O-])c2)cc1
REMARK SMILES IDX 9 1 10 2 11 3 12 4 25 5 26 6 7 7 6 8 8 10 5 11 4 12 2 13
REMARK SMILES IDX 1 14 3 15 13 16 14 17 15 18 16 19 24 20 17 21 20 22 18 23
REMARK SMILES IDX 21 24 22 25 23 26 19 27
REMARK H PARENT 6 9 19 28
REMARK Flexibility Score: inf
ROOT
ATOM      1  C   UNL     1       2.581   1.420   0.192  1.00  0.00     0.039 A 
ATOM      2  C   UNL     1       1.623   1.934  -0.673  1.00  0.00     0.016 A 
ATOM      3  C   UNL     1       0.513   1.185  -1.042  1.00  0.00     0.031 A 
ATOM      4  C   UNL     1       0.230  -0.016  -0.405  1.00  0.00     0.086 A 
ATOM      5  C   UNL     1       1.123  -0.491   0.541  1.00  0.00     0.031 A 
ATOM      6  C   UNL     1       2.170   0.327   0.947  1.00  0.00     0.016 A 
ENDROOT
BRANCH   1   7
ATOM      7  C   UNL     1       4.009   1.675  -0.036  1.00  0.00     0.251 C 
ATOM      8  N   UNL     1       4.677   1.119  -1.157  1.00  0.00    -0.352 N 
ATOM      9  H   UNL     1       4.197   1.107  -2.016  1.00  0.00     0.163 HD
ATOM     10  O   UNL     1       4.738   1.997   0.951  1.00  0.00    -0.269 OA
BRANCH   8  11
ATOM     11  C   UNL     1       6.006   0.571  -1.125  1.00  0.00     0.122 C 
BRANCH  11  12
ATOM     12  C   UNL     1       6.355  -0.046   0.217  1.00  0.00     0.074 C 
BRANCH  12  13
ATOM     13  C   UNL     1       7.293  -1.200   0.061  1.00  0.00     0.043 C 
ATOM     14  O   UNL     1       7.012  -2.299   0.629  1.00  0.00    -0.550 OA
ATOM     15  O   UNL     1       8.626  -0.959  -0.285  1.00  0.00    -0.550 OA
ENDBRANCH  12  13
ENDBRANCH  11  12
ENDBRANCH   8  11
ENDBRANCH   1   7
BRANCH   4  16
ATOM     16  N   UNL     1      -1.142  -0.419  -0.317  1.00  0.00    -0.151 NA
ATOM     17  N   UNL     1      -2.110   0.364  -0.501  1.00  0.00    -0.151 NA
BRANCH  17  18
ATOM     18  C   UNL     1      -3.282   0.316   0.321  1.00  0.00     0.087 A 
ATOM     19  C   UNL     1      -3.966   1.492   0.606  1.00  0.00     0.034 A 
ATOM     20  C   UNL     1      -3.990  -0.871   0.448  1.00  0.00     0.044 A 
ATOM     21  C   UNL     1      -5.354   1.541   0.571  1.00  0.00     0.049 A 
ATOM     22  C   UNL     1      -5.362  -0.819   0.655  1.00  0.00     0.041 A 
ATOM     23  C   UNL     1      -6.077   0.362   0.500  1.00  0.00     0.124 A 
BRANCH  22  24
ATOM     24  C   UNL     1      -6.112  -2.076   0.540  1.00  0.00     0.075 C 
ATOM     25  O   UNL     1      -5.901  -2.979   1.404  1.00  0.00    -0.545 OA
ATOM     26  O   UNL     1      -6.334  -2.535  -0.762  1.00  0.00    -0.545 OA
ENDBRANCH  22  24
BRANCH  23  27
ATOM     27  O   UNL     1      -7.325   0.410  -0.101  1.00  0.00    -0.507 OA
ATOM     28  H   UNL     1      -7.773   1.229  -0.186  1.00  0.00     0.293 HD
ENDBRANCH  23  27
ENDBRANCH  17  18
ENDBRANCH   4  16
TORSDOF 8
