REMARK SMILES [NH3+][C@@H](C(=O)N[C@@H]1C(=O)N2C(C(=O)[O-])=C(Cl)CS[C@H]12)c1ccccc1
REMARK SMILES IDX 3 1 4 2 5 3 2 5 1 6 19 10 20 11 24 12 21 13 23 14 22 15 6 16
REMARK SMILES IDX 7 17 18 18 8 19 9 20 17 21 10 22 16 23 14 24 15 25 11 26
REMARK SMILES IDX 12 27 13 28
REMARK H PARENT 5 4 1 7 1 8 1 9
REMARK Flexibility Score: inf
ROOT
ATOM      1  C   UNL     1       1.687  -1.063   0.319  1.00  0.00     0.283 C 
ATOM      2  O   UNL     1       1.525   0.123   0.710  1.00  0.00    -0.268 OA
ATOM      3  N   UNL     1       0.508  -1.889   0.328  1.00  0.00    -0.336 N 
ATOM      4  H   UNL     1       0.364  -2.700  -0.210  1.00  0.00     0.164 HD
ENDROOT
BRANCH   1   5
ATOM      5  C   UNL     1       2.647  -1.255  -0.968  1.00  0.00     0.302 C 
BRANCH   5   6
ATOM      6  N   UNL     1       3.551  -2.296  -0.199  1.00  0.00    -0.343 N 
ATOM      7  H   UNL     1       3.147  -3.228  -0.288  1.00  0.00     0.345 HD
ATOM      8  H   UNL     1       3.601  -2.040   0.787  1.00  0.00     0.345 HD
ATOM      9  H   UNL     1       4.489  -2.293  -0.599  1.00  0.00     0.345 HD
ENDBRANCH   5   6
BRANCH   5  10
ATOM     10  C   UNL     1       3.593  -0.004  -0.590  1.00  0.00     0.019 A 
ATOM     11  C   UNL     1       3.060   1.223  -0.975  1.00  0.00     0.010 A 
ATOM     12  C   UNL     1       4.928  -0.123  -0.637  1.00  0.00     0.010 A 
ATOM     13  C   UNL     1       3.682   2.384  -0.533  1.00  0.00     0.001 A 
ATOM     14  C   UNL     1       5.636   1.006  -0.228  1.00  0.00     0.001 A 
ATOM     15  C   UNL     1       5.006   2.243  -0.144  1.00  0.00     0.000 A 
ENDBRANCH   5  10
ENDBRANCH   1   5
BRANCH   3  16
ATOM     16  C   UNL     1      -0.514  -1.263   1.354  1.00  0.00     0.205 C 
ATOM     17  C   UNL     1      -1.867  -1.837   0.707  1.00  0.00     0.253 C 
ATOM     18  C   UNL     1      -0.872   0.084   0.419  1.00  0.00     0.181 C 
ATOM     19  O   UNL     1      -2.476  -2.718   1.398  1.00  0.00    -0.272 OA
ATOM     20  N   UNL     1      -2.280  -0.449   0.643  1.00  0.00    -0.292 N 
ATOM     21  S   UNL     1      -0.840  -0.571  -1.373  1.00  0.00    -0.128 SA
ATOM     22  C   UNL     1      -3.237   0.401  -0.006  1.00  0.00     0.083 C 
ATOM     23  C   UNL     1      -2.180   0.329  -2.189  1.00  0.00     0.122 C 
ATOM     24  C   UNL     1      -2.969   1.053  -1.139  1.00  0.00     0.054 C 
ATOM     25  Cl  UNL     1      -3.908   2.461  -1.512  1.00  0.00    -0.086 Cl
BRANCH  22  26
ATOM     26  C   UNL     1      -4.543   0.458   0.644  1.00  0.00     0.089 C 
ATOM     27  O   UNL     1      -4.659   0.330   1.902  1.00  0.00    -0.543 OA
ATOM     28  O   UNL     1      -5.478   1.371   0.135  1.00  0.00    -0.543 OA
ENDBRANCH  22  26
ENDBRANCH   3  16
TORSDOF 5
