REMARK SMILES Nc1ccc(C(=O)NCC(=O)[O-])cc1
REMARK SMILES IDX 6 1 7 2 8 3 5 5 2 6 3 7 14 8 4 9 13 10 1 11 9 14 10 15 11 16
REMARK SMILES IDX 12 17
REMARK H PARENT 8 4 1 12 1 13
REMARK Flexibility Score: inf
ROOT
ATOM      1  C   UNL     1       0.710   0.033   0.038  1.00  0.00     0.251 C 
ATOM      2  O   UNL     1       1.079   0.546  -1.058  1.00  0.00    -0.269 OA
ATOM      3  N   UNL     1       1.327   0.467   1.255  1.00  0.00    -0.347 N 
ATOM      4  H   UNL     1       0.905   0.328   2.134  1.00  0.00     0.164 HD
ENDROOT
BRANCH   1   5
ATOM      5  C   UNL     1      -0.622  -0.567   0.204  1.00  0.00     0.039 A 
ATOM      6  C   UNL     1      -3.378  -0.241  -0.292  1.00  0.00     0.031 A 
ATOM      7  C   UNL     1      -2.621  -1.135  -1.038  1.00  0.00     0.026 A 
ATOM      8  C   UNL     1      -2.825   0.172   0.913  1.00  0.00     0.026 A 
ATOM      9  C   UNL     1      -1.246  -1.223  -0.851  1.00  0.00     0.016 A 
ATOM     10  C   UNL     1      -1.480  -0.033   1.157  1.00  0.00     0.016 A 
BRANCH   6  11
ATOM     11  N   UNL     1      -4.412   0.549  -0.889  1.00  0.00    -0.399 N 
ATOM     12  H   UNL     1      -4.814   0.269  -1.743  1.00  0.00     0.156 HD
ATOM     13  H   UNL     1      -4.720   1.372  -0.446  1.00  0.00     0.156 HD
ENDBRANCH   6  11
ENDBRANCH   1   5
BRANCH   3  14
ATOM     14  C   UNL     1       2.616   1.124   1.112  1.00  0.00     0.169 C 
BRANCH  14  15
ATOM     15  C   UNL     1       3.358   0.382   0.050  1.00  0.00     0.061 C 
ATOM     16  O   UNL     1       4.200   0.937  -0.703  1.00  0.00    -0.548 OA
ATOM     17  O   UNL     1       3.294  -1.011   0.119  1.00  0.00    -0.548 OA
ENDBRANCH  14  15
ENDBRANCH   3  14
TORSDOF 4
