REMARK SMILES CCC[C@H]([NH2+][C@@H](C)C(=O)N1[C@H](C(=O)[O-])C[C@@H]2CCCC[C@@H]21)C(=O)OCC
REMARK SMILES IDX 5 1 4 4 3 5 2 6 1 7 22 8 23 9 24 10 25 11 26 12 6 13 7 14
REMARK SMILES IDX 8 15 9 16 10 17 11 18 21 19 15 20 16 21 20 22 17 23 19 24
REMARK SMILES IDX 18 25 12 26 13 27 14 28
REMARK H PARENT 5 2 5 3
REMARK Flexibility Score: inf
ROOT
ATOM      1  N   UNL     1       1.400  -0.009  -0.540  1.00  0.00    -0.325 N 
ATOM      2  H   UNL     1       1.605  -0.087  -1.536  1.00  0.00     0.347 HD
ATOM      3  H   UNL     1       1.019   0.928  -0.413  1.00  0.00     0.347 HD
ENDROOT
BRANCH   1   4
ATOM      4  C   UNL     1       2.680  -0.278   0.320  1.00  0.00     0.294 C 
BRANCH   4   5
ATOM      5  C   UNL     1       3.284  -1.263  -0.851  1.00  0.00     0.077 C 
BRANCH   5   6
ATOM      6  C   UNL     1       4.337  -2.005  -0.093  1.00  0.00     0.003 C 
ATOM      7  C   UNL     1       4.612  -2.385   0.327  1.00  0.00     0.004 C 
ENDBRANCH   5   6
ENDBRANCH   4   5
BRANCH   4   8
ATOM      8  C   UNL     1       3.411   1.042  -0.234  1.00  0.00     0.364 C 
ATOM      9  O   UNL     1       3.575   1.188  -1.428  1.00  0.00    -0.245 OA
BRANCH   8  10
ATOM     10  O   UNL     1       4.139   1.576   0.810  1.00  0.00    -0.462 OA
BRANCH  10  11
ATOM     11  C   UNL     1       4.986   2.655   0.483  1.00  0.00     0.229 C 
ATOM     12  C   UNL     1       6.026   2.214  -0.524  1.00  0.00     0.049 C 
ENDBRANCH  10  11
ENDBRANCH   8  10
ENDBRANCH   4   8
ENDBRANCH   1   4
BRANCH   1  13
ATOM     13  C   UNL     1       0.416  -1.147  -0.075  1.00  0.00     0.270 C 
ATOM     14  C   UNL     1       1.188  -1.617   1.302  1.00  0.00     0.086 C 
BRANCH  13  15
ATOM     15  C   UNL     1      -0.504  -0.090   0.724  1.00  0.00     0.281 C 
ATOM     16  O   UNL     1       0.062   0.800   1.367  1.00  0.00    -0.268 OA
BRANCH  15  17
ATOM     17  N   UNL     1      -1.771   0.211   0.129  1.00  0.00    -0.326 N 
ATOM     18  C   UNL     1      -2.041  -0.428  -1.264  1.00  0.00     0.132 C 
ATOM     19  C   UNL     1      -2.902  -0.208   1.100  1.00  0.00     0.089 C 
ATOM     20  C   UNL     1      -3.624  -0.793  -1.041  1.00  0.00     0.037 C 
ATOM     21  C   UNL     1      -3.226  -1.652   0.258  1.00  0.00     0.014 C 
ATOM     22  C   UNL     1      -3.997   0.771   0.389  1.00  0.00     0.025 C 
ATOM     23  C   UNL     1      -4.704  -1.819   0.885  1.00  0.00     0.006 C 
ATOM     24  C   UNL     1      -5.345   0.445   0.853  1.00  0.00     0.002 C 
ATOM     25  C   UNL     1      -5.680  -0.937   0.255  1.00  0.00     0.000 C 
BRANCH  18  26
ATOM     26  C   UNL     1      -2.394   0.992  -1.954  1.00  0.00     0.064 C 
ATOM     27  O   UNL     1      -1.647   1.970  -1.651  1.00  0.00    -0.548 OA
ATOM     28  O   UNL     1      -2.279   0.768  -3.341  1.00  0.00    -0.548 OA
ENDBRANCH  18  26
ENDBRANCH  15  17
ENDBRANCH  13  15
ENDBRANCH   1  13
TORSDOF 10
