REMARK SMILES C[C@@H]1COc2c(N3CC[NH+](C)CC3)c(F)cc3c(=O)c(C(=O)[O-])cn1c23
REMARK SMILES IDX 1 1 2 2 3 3 4 4 5 5 6 6 14 7 15 8 16 9 17 10 18 11 19 12
REMARK SMILES IDX 20 13 24 14 25 15 26 16 21 17 22 18 23 19 7 20 8 21 13 22
REMARK SMILES IDX 9 23 12 24 10 25 11 26
REMARK H PARENT 10 27
REMARK Flexibility Score: inf
ROOT
ATOM      1  C   UNL     1      -2.039   3.901  -0.000  1.00  0.00     0.035 C 
ATOM      2  C   UNL     1      -1.397   2.666   0.891  1.00  0.00     0.122 C 
ATOM      3  C   UNL     1       0.122   2.952   0.306  1.00  0.00     0.254 C 
ATOM      4  O   UNL     1       0.852   1.772   0.647  1.00  0.00    -0.487 OA
ATOM      5  C   UNL     1       0.462   0.638  -0.076  1.00  0.00     0.170 A 
ATOM      6  C   UNL     1       1.344  -0.356  -0.441  1.00  0.00     0.118 A 
ATOM      7  C   UNL     1       0.825  -1.557  -0.899  1.00  0.00     0.151 A 
ATOM      8  F   UNL     1       1.580  -2.675  -0.731  1.00  0.00    -0.205 F 
ATOM      9  C   UNL     1      -0.510  -1.605  -1.269  1.00  0.00     0.056 A 
ATOM     10  C   UNL     1      -1.372  -0.671  -0.765  1.00  0.00     0.053 A 
ATOM     11  C   UNL     1      -2.728  -0.967  -0.687  1.00  0.00     0.198 A 
ATOM     12  O   UNL     1      -3.151  -2.163  -0.679  1.00  0.00    -0.288 OA
ATOM     13  C   UNL     1      -3.573   0.100  -0.404  1.00  0.00     0.062 A 
ATOM     14  C   UNL     1      -3.047   1.342  -0.178  1.00  0.00     0.100 A 
ATOM     15  N   UNL     1      -1.717   1.611  -0.248  1.00  0.00    -0.337 N 
ATOM     16  C   UNL     1      -0.916   0.517  -0.212  1.00  0.00     0.097 A 
ENDROOT
BRANCH  13  17
ATOM     17  C   UNL     1      -4.976  -0.255  -0.144  1.00  0.00     0.077 C 
ATOM     18  O   UNL     1      -5.194  -0.668   1.036  1.00  0.00    -0.545 OA
ATOM     19  O   UNL     1      -5.558  -0.967  -1.201  1.00  0.00    -0.545 OA
ENDBRANCH  13  17
BRANCH   6  20
ATOM     20  N   UNL     1       2.684  -0.328   0.031  1.00  0.00    -0.355 N 
ATOM     21  C   UNL     1       3.345  -1.573   0.419  1.00  0.00     0.178 C 
ATOM     22  C   UNL     1       3.574   0.807  -0.187  1.00  0.00     0.178 C 
ATOM     23  C   UNL     1       4.541  -1.720  -0.515  1.00  0.00     0.283 C 
ATOM     24  C   UNL     1       4.906   0.472   0.415  1.00  0.00     0.283 C 
ATOM     25  N   UNL     1       5.498  -0.732  -0.087  1.00  0.00    -0.334 N 
ATOM     26  C   UNL     1       6.444  -0.540  -1.146  1.00  0.00     0.332 C 
ATOM     27  H   UNL     1       5.997  -1.078   0.733  1.00  0.00     0.347 HD
ENDBRANCH   6  20
TORSDOF 2
