REMARK SMILES COc1c(N2CC[NH2+][C@@H](C)C2)c(F)cc2c(=O)c(C(=O)[O-])cn(C3CC3)c12
REMARK SMILES IDX 3 1 4 2 12 3 13 4 14 5 15 6 16 7 17 8 18 9 22 10 23 11 27 12
REMARK SMILES IDX 2 13 1 14 5 15 6 16 11 17 7 18 9 19 8 20 10 21 24 24 25 25
REMARK SMILES IDX 26 26 19 27 20 28 21 29
REMARK H PARENT 8 22 8 23
REMARK Flexibility Score: inf
ROOT
ATOM      1  C   UNL     1      -0.416  -0.862  -0.279  1.00  0.00     0.169 A 
ATOM      2  C   UNL     1      -1.490  -0.095   0.152  1.00  0.00     0.118 A 
ATOM      3  C   UNL     1      -1.208   0.908   1.071  1.00  0.00     0.151 A 
ATOM      4  F   UNL     1      -2.213   1.547   1.685  1.00  0.00    -0.205 F 
ATOM      5  C   UNL     1       0.049   1.494   1.171  1.00  0.00     0.056 A 
ATOM      6  C   UNL     1       1.053   0.879   0.433  1.00  0.00     0.053 A 
ATOM      7  C   UNL     1       2.301   1.438   0.444  1.00  0.00     0.198 A 
ATOM      8  O   UNL     1       2.451   2.675   0.520  1.00  0.00    -0.288 OA
ATOM      9  C   UNL     1       3.401   0.622   0.278  1.00  0.00     0.062 A 
ATOM     10  C   UNL     1       3.168  -0.708   0.058  1.00  0.00     0.100 A 
ATOM     11  N   UNL     1       1.927  -1.199  -0.176  1.00  0.00    -0.340 N 
ATOM     12  C   UNL     1       0.864  -0.399  -0.054  1.00  0.00     0.097 A 
ENDROOT
BRANCH   1  13
ATOM     13  O   UNL     1      -0.665  -2.132  -0.736  1.00  0.00    -0.492 OA
ATOM     14  C   UNL     1      -1.268  -2.985  -0.248  1.00  0.00     0.278 C 
ENDBRANCH   1  13
BRANCH   2  15
ATOM     15  N   UNL     1      -2.759  -0.194  -0.484  1.00  0.00    -0.354 N 
ATOM     16  C   UNL     1      -3.759  -1.189  -0.138  1.00  0.00     0.178 C 
ATOM     17  C   UNL     1      -3.353   1.092  -0.861  1.00  0.00     0.181 C 
ATOM     18  C   UNL     1      -4.855  -0.674   0.728  1.00  0.00     0.282 C 
ATOM     19  C   UNL     1      -4.909   0.732  -1.231  1.00  0.00     0.198 C 
ATOM     20  N   UNL     1      -5.319   0.605   0.283  1.00  0.00    -0.341 N 
ATOM     21  C   UNL     1      -5.328   2.320  -1.270  1.00  0.00     0.077 C 
ATOM     22  H   UNL     1      -4.882   1.347   0.829  1.00  0.00     0.346 HD
ATOM     23  H   UNL     1      -6.329   0.689   0.399  1.00  0.00     0.346 HD
ENDBRANCH   2  15
BRANCH  11  24
ATOM     24  C   UNL     1       1.758  -2.506  -0.744  1.00  0.00     0.087 C 
ATOM     25  C   UNL     1       2.848  -2.902  -1.738  1.00  0.00     0.027 C 
ATOM     26  C   UNL     1       2.893  -3.458  -0.347  1.00  0.00     0.027 C 
ENDBRANCH  11  24
BRANCH   9  27
ATOM     27  C   UNL     1       4.711   1.253   0.266  1.00  0.00     0.077 C 
ATOM     28  O   UNL     1       4.905   2.102  -0.657  1.00  0.00    -0.545 OA
ATOM     29  O   UNL     1       5.213   1.637   1.515  1.00  0.00    -0.545 OA
ENDBRANCH   9  27
TORSDOF 4
