REMARK SMILES O=C([O-])Cc1ccccc1Nc1c(Cl)cccc1Cl
REMARK SMILES IDX 5 1 6 2 7 3 8 4 9 5 10 6 4 7 2 8 1 9 3 10 11 11 12 13 13 14
REMARK SMILES IDX 18 15 14 16 15 17 17 18 19 19 16 20
REMARK H PARENT 11 12
REMARK Flexibility Score: inf
ROOT
ATOM      1  C   UNL     1       1.970  -0.055   0.622  1.00  0.00    -0.019 A 
ATOM      2  C   UNL     1       3.003  -0.982   0.691  1.00  0.00     0.006 A 
ATOM      3  C   UNL     1       2.756  -2.312   0.372  1.00  0.00     0.000 A 
ATOM      4  C   UNL     1       1.753  -2.515  -0.568  1.00  0.00     0.002 A 
ATOM      5  C   UNL     1       0.683  -1.631  -0.648  1.00  0.00     0.026 A 
ATOM      6  C   UNL     1       0.742  -0.481   0.129  1.00  0.00     0.042 A 
ENDROOT
BRANCH   1   7
ATOM      7  C   UNL     1       2.270   1.411   0.674  1.00  0.00     0.090 C 
BRANCH   7   8
ATOM      8  C   UNL     1       2.895   1.792  -0.632  1.00  0.00     0.046 C 
ATOM      9  O   UNL     1       4.107   1.443  -0.766  1.00  0.00    -0.550 OA
ATOM     10  O   UNL     1       2.121   1.685  -1.791  1.00  0.00    -0.550 OA
ENDBRANCH   7   8
ENDBRANCH   1   7
BRANCH   6  11
ATOM     11  N   UNL     1      -0.387   0.277   0.497  1.00  0.00    -0.353 N 
ATOM     12  H   UNL     1      -0.234   1.066   1.067  1.00  0.00     0.167 HD
BRANCH  11  13
ATOM     13  C   UNL     1      -1.721   0.001   0.118  1.00  0.00     0.076 A 
ATOM     14  C   UNL     1      -2.408   0.949  -0.632  1.00  0.00     0.066 A 
ATOM     15  C   UNL     1      -2.542  -0.871   0.824  1.00  0.00     0.066 A 
ATOM     16  Cl  UNL     1      -1.483   2.205  -1.438  1.00  0.00    -0.082 Cl
ATOM     17  C   UNL     1      -3.762   1.190  -0.432  1.00  0.00     0.023 A 
ATOM     18  C   UNL     1      -3.854  -0.540   1.143  1.00  0.00     0.023 A 
ATOM     19  Cl  UNL     1      -1.730  -2.210   1.620  1.00  0.00    -0.082 Cl
ATOM     20  C   UNL     1      -4.412   0.641   0.669  1.00  0.00     0.003 A 
ENDBRANCH  11  13
ENDBRANCH   6  11
TORSDOF 4
