REMARK SMILES C[C@H]1COc2c(N3CC[NH+](C)CC3)c(F)cc3c(=O)c(C(=O)[O-])cn1c23
REMARK SMILES IDX 1 1 2 2 3 3 4 4 5 5 6 6 14 7 15 8 16 9 17 10 18 11 19 12
REMARK SMILES IDX 20 13 24 14 25 15 26 16 21 17 22 18 23 19 7 20 8 21 13 22
REMARK SMILES IDX 9 23 12 24 10 25 11 26
REMARK H PARENT 10 27
REMARK Flexibility Score: inf
ROOT
ATOM      1  C   UNL     1      -2.515  -0.996  -3.230  1.00  0.00     0.035 C 
ATOM      2  C   UNL     1      -1.542  -1.534  -1.985  1.00  0.00     0.122 C 
ATOM      3  C   UNL     1      -0.179  -0.923  -2.731  1.00  0.00     0.254 C 
ATOM      4  O   UNL     1       0.751  -0.849  -1.654  1.00  0.00    -0.487 OA
ATOM      5  C   UNL     1       0.385  -0.519  -0.364  1.00  0.00     0.170 A 
ATOM      6  C   UNL     1       1.280  -0.559   0.687  1.00  0.00     0.118 A 
ATOM      7  C   UNL     1       0.850  -0.369   1.986  1.00  0.00     0.151 A 
ATOM      8  F   UNL     1       1.593  -0.955   2.969  1.00  0.00    -0.205 F 
ATOM      9  C   UNL     1      -0.401   0.164   2.241  1.00  0.00     0.056 A 
ATOM     10  C   UNL     1      -1.263   0.224   1.153  1.00  0.00     0.053 A 
ATOM     11  C   UNL     1      -2.570   0.644   1.340  1.00  0.00     0.198 A 
ATOM     12  O   UNL     1      -3.029   0.930   2.479  1.00  0.00    -0.288 OA
ATOM     13  C   UNL     1      -3.372   0.816   0.228  1.00  0.00     0.062 A 
ATOM     14  C   UNL     1      -3.051   0.064  -0.884  1.00  0.00     0.100 A 
ATOM     15  N   UNL     1      -1.754  -0.173  -1.170  1.00  0.00    -0.337 N 
ATOM     16  C   UNL     1      -0.925  -0.220  -0.098  1.00  0.00     0.097 A 
ENDROOT
BRANCH  13  17
ATOM     17  C   UNL     1      -4.443   1.818   0.226  1.00  0.00     0.077 C 
ATOM     18  O   UNL     1      -5.502   1.592  -0.412  1.00  0.00    -0.545 OA
ATOM     19  O   UNL     1      -4.048   3.156   0.315  1.00  0.00    -0.545 OA
ENDBRANCH  13  17
BRANCH   6  20
ATOM     20  N   UNL     1       2.636  -0.765   0.356  1.00  0.00    -0.355 N 
ATOM     21  C   UNL     1       3.588  -1.446   1.213  1.00  0.00     0.178 C 
ATOM     22  C   UNL     1       3.151  -0.090  -0.828  1.00  0.00     0.178 C 
ATOM     23  C   UNL     1       4.925  -1.385   0.482  1.00  0.00     0.283 C 
ATOM     24  C   UNL     1       4.300   0.785  -0.355  1.00  0.00     0.283 C 
ATOM     25  N   UNL     1       5.329  -0.014   0.258  1.00  0.00    -0.334 N 
ATOM     26  C   UNL     1       5.808   0.603   1.478  1.00  0.00     0.332 C 
ATOM     27  H   UNL     1       6.100  -0.053  -0.408  1.00  0.00     0.347 HD
ENDBRANCH   6  20
TORSDOF 2
