REMARK SMILES C[C@@H](O)[C@H]1C(=O)N2C(C(=O)[O-])=C(S[C@@H]3C[NH2+][C@H](C(=O)N(C)C)C3)[C@H](C)[C@H]12
REMARK SMILES IDX 4 1 5 2 6 3 7 4 8 5 12 6 24 7 25 8 26 9 2 10 1 11 3 12 9 14
REMARK SMILES IDX 10 15 11 16 13 17 14 18 15 19 23 20 16 21 17 22 18 25 19 26
REMARK SMILES IDX 20 27 21 28 22 29
REMARK H PARENT 3 13 16 23 16 24
REMARK Flexibility Score: inf
ROOT
ATOM      1  C   UNL     1       3.787   1.463  -1.257  1.00  0.00     0.131 C 
ATOM      2  C   UNL     1       3.808  -0.125  -1.366  1.00  0.00     0.235 C 
ATOM      3  O   UNL     1       3.955  -0.724  -2.442  1.00  0.00    -0.274 OA
ATOM      4  N   UNL     1       2.750  -0.239  -0.392  1.00  0.00    -0.305 N 
ATOM      5  C   UNL     1       1.500  -0.504   0.198  1.00  0.00     0.077 C 
ATOM      6  C   UNL     1       0.864   0.543   0.624  1.00  0.00     0.016 C 
ATOM      7  C   UNL     1       1.545   1.798  -0.118  1.00  0.00     0.049 C 
ATOM      8  C   UNL     1       1.394   1.096  -1.602  1.00  0.00     0.015 C 
ATOM      9  C   UNL     1       3.100   1.136   0.265  1.00  0.00     0.113 C 
ENDROOT
BRANCH   1  10
ATOM     10  C   UNL     1       5.403   1.699  -0.648  1.00  0.00     0.125 C 
ATOM     11  C   UNL     1       5.407   0.334   0.316  1.00  0.00     0.039 C 
BRANCH  10  12
ATOM     12  O   UNL     1       6.019   0.929  -1.828  1.00  0.00    -0.393 OA
ATOM     13  H   UNL     1       5.537   0.096  -1.957  1.00  0.00     0.210 HD
ENDBRANCH  10  12
ENDBRANCH   1  10
BRANCH   5  14
ATOM     14  C   UNL     1       1.042  -1.866   0.512  1.00  0.00     0.089 C 
ATOM     15  O   UNL     1       0.902  -2.594  -0.517  1.00  0.00    -0.543 OA
ATOM     16  O   UNL     1       1.004  -2.378   1.794  1.00  0.00    -0.543 OA
ENDBRANCH   5  14
BRANCH   6  17
ATOM     17  S   UNL     1      -0.389   0.698   1.864  1.00  0.00    -0.118 SA
BRANCH  17  18
ATOM     18  C   UNL     1      -1.669  -0.599   1.264  1.00  0.00     0.113 C 
ATOM     19  C   UNL     1      -1.923   0.133  -0.117  1.00  0.00     0.276 C 
ATOM     20  C   UNL     1      -2.910   0.143   1.924  1.00  0.00     0.096 C 
ATOM     21  N   UNL     1      -3.269   0.048  -0.408  1.00  0.00    -0.335 N 
ATOM     22  C   UNL     1      -3.915  -0.683   0.862  1.00  0.00     0.274 C 
ATOM     23  H   UNL     1      -3.420  -0.500  -1.254  1.00  0.00     0.347 HD
ATOM     24  H   UNL     1      -3.685   0.964  -0.579  1.00  0.00     0.347 HD
BRANCH  22  25
ATOM     25  C   UNL     1      -5.083   0.471   0.971  1.00  0.00     0.280 C 
ATOM     26  O   UNL     1      -5.408   0.758   2.123  1.00  0.00    -0.268 OA
ATOM     27  N   UNL     1      -5.891   0.571  -0.184  1.00  0.00    -0.344 N 
ATOM     28  C   UNL     1      -6.234   1.947  -0.540  1.00  0.00     0.146 C 
ATOM     29  C   UNL     1      -5.790  -0.358  -1.299  1.00  0.00     0.146 C 
ENDBRANCH  22  25
ENDBRANCH  17  18
ENDBRANCH   6  17
TORSDOF 6
