REMARK SMILES CCOC(=O)[C@H](CCc1ccccc1)[NH2+][C@@H](C)C(=O)N1[C@H](C(=O)[O-])C[C@@H]2CCC[C@@H]21
REMARK SMILES IDX 15 1 6 4 4 5 5 6 3 7 2 8 1 9 7 10 8 11 9 12 10 13 14 14
REMARK SMILES IDX 11 15 13 16 12 17 16 18 17 19 18 20 19 21 20 22 21 23 30 24
REMARK SMILES IDX 25 25 26 26 29 27 27 28 28 29 22 30 23 31 24 32
REMARK H PARENT 15 2 15 3
REMARK Flexibility Score: inf
ROOT
ATOM      1  N   UNL     1       0.659  -0.127  -0.640  1.00  0.00    -0.325 N 
ATOM      2  H   UNL     1       0.455   0.613  -1.312  1.00  0.00     0.347 HD
ATOM      3  H   UNL     1       1.216   0.334   0.080  1.00  0.00     0.347 HD
ENDROOT
BRANCH   1   4
ATOM      4  C   UNL     1       1.369  -1.355  -1.326  1.00  0.00     0.294 C 
BRANCH   4   5
ATOM      5  C   UNL     1       1.610  -2.204   0.016  1.00  0.00     0.364 C 
ATOM      6  O   UNL     1       1.627  -1.740   1.109  1.00  0.00    -0.245 OA
BRANCH   5   7
ATOM      7  O   UNL     1       2.492  -3.210  -0.307  1.00  0.00    -0.462 OA
BRANCH   7   8
ATOM      8  C   UNL     1       2.607  -4.308   0.608  1.00  0.00     0.229 C 
ATOM      9  C   UNL     1       2.458  -4.626   0.542  1.00  0.00     0.049 C 
ENDBRANCH   7   8
ENDBRANCH   5   7
ENDBRANCH   4   5
BRANCH   4  10
ATOM     10  C   UNL     1       2.866  -0.669  -1.272  1.00  0.00     0.082 C 
BRANCH  10  11
ATOM     11  C   UNL     1       3.002   0.005   0.035  1.00  0.00     0.042 C 
BRANCH  11  12
ATOM     12  C   UNL     1       4.135   0.916   0.038  1.00  0.00    -0.048 A 
ATOM     13  C   UNL     1       5.417   0.507   0.395  1.00  0.00     0.004 A 
ATOM     14  C   UNL     1       3.881   2.261   0.283  1.00  0.00     0.004 A 
ATOM     15  C   UNL     1       6.433   1.364  -0.012  1.00  0.00     0.000 A 
ATOM     16  C   UNL     1       4.891   3.145  -0.062  1.00  0.00     0.000 A 
ATOM     17  C   UNL     1       6.202   2.724  -0.060  1.00  0.00     0.000 A 
ENDBRANCH  11  12
ENDBRANCH  10  11
ENDBRANCH   4  10
ENDBRANCH   1   4
BRANCH   1  18
ATOM     18  C   UNL     1      -0.659  -0.807  -0.108  1.00  0.00     0.270 C 
ATOM     19  C   UNL     1      -0.623   0.175   1.216  1.00  0.00     0.086 C 
BRANCH  18  20
ATOM     20  C   UNL     1      -1.652   0.184  -0.902  1.00  0.00     0.281 C 
ATOM     21  O   UNL     1      -1.349   0.458  -2.068  1.00  0.00    -0.268 OA
BRANCH  20  22
ATOM     22  N   UNL     1      -3.024   0.216  -0.445  1.00  0.00    -0.326 N 
ATOM     23  C   UNL     1      -3.176  -0.076   1.085  1.00  0.00     0.132 C 
ATOM     24  C   UNL     1      -3.511   1.672  -0.694  1.00  0.00     0.089 C 
ATOM     25  C   UNL     1      -4.357   1.023   1.383  1.00  0.00     0.037 C 
ATOM     26  C   UNL     1      -3.286   2.138   0.918  1.00  0.00     0.014 C 
ATOM     27  C   UNL     1      -5.106   1.378  -0.513  1.00  0.00     0.025 C 
ATOM     28  C   UNL     1      -4.375   3.317   0.764  1.00  0.00     0.006 C 
ATOM     29  C   UNL     1      -5.507   2.684   0.076  1.00  0.00     0.002 C 
BRANCH  23  30
ATOM     30  C   UNL     1      -4.166  -1.313   0.808  1.00  0.00     0.064 C 
ATOM     31  O   UNL     1      -5.361  -1.258   0.933  1.00  0.00    -0.548 OA
ATOM     32  O   UNL     1      -3.501  -2.475   0.527  1.00  0.00    -0.548 OA
ENDBRANCH  23  30
ENDBRANCH  20  22
ENDBRANCH  18  20
ENDBRANCH   1  18
TORSDOF 11
