REMARK SMILES CC1(C)[C@H](C(=O)[O-])N2C(=O)C[C@H]2S1(=O)=O
REMARK SMILES IDX 1 1 2 2 3 3 4 4 8 5 9 6 10 7 11 8 12 9 13 10 14 11 15 12
REMARK SMILES IDX 5 13 6 14 7 15
REMARK H PARENT
REMARK Flexibility Score: inf
ROOT
ATOM      1  C   UNL     1      -0.551   1.435  -0.801  1.00  0.00     0.031 C 
ATOM      2  C   UNL     1      -0.582   1.190  -0.446  1.00  0.00     0.095 C 
ATOM      3  C   UNL     1      -1.908   1.786  -0.218  1.00  0.00     0.031 C 
ATOM      4  C   UNL     1      -0.769  -0.284  -1.163  1.00  0.00     0.153 C 
ATOM      5  N   UNL     1       0.499  -0.971  -0.544  1.00  0.00    -0.315 N 
ATOM      6  C   UNL     1       1.760  -1.509  -0.398  1.00  0.00     0.227 C 
ATOM      7  O   UNL     1       2.666  -1.781  -1.236  1.00  0.00    -0.275 OA
ATOM      8  C   UNL     1       1.917  -1.178   1.028  1.00  0.00     0.142 C 
ATOM      9  C   UNL     1       0.399  -0.702   0.947  1.00  0.00     0.215 C 
ATOM     10  S   UNL     1       0.702   1.127   0.590  1.00  0.00     0.179 S 
ATOM     11  O   UNL     1       0.694   1.695   1.916  1.00  0.00    -0.226 OA
ATOM     12  O   UNL     1       1.988   1.288  -0.100  1.00  0.00    -0.226 OA
ENDROOT
BRANCH   4  13
ATOM     13  C   UNL     1      -1.841  -0.889  -0.114  1.00  0.00     0.066 C 
ATOM     14  O   UNL     1      -1.843  -0.734   1.072  1.00  0.00    -0.548 OA
ATOM     15  O   UNL     1      -3.130  -0.474  -0.535  1.00  0.00    -0.548 OA
ENDBRANCH   4  13
TORSDOF 1
