REMARK SMILES C[C@@H](O)[C@H]1C(=O)N2C(C(=O)[O-])=C(S[C@@H]3C[NH2+][C@H](C(=O)Nc4cccc(C(=O)[O-])c4)C3)[C@H](C)[C@H]12
REMARK SMILES IDX 14 1 15 2 16 3 17 4 30 5 13 8 12 9 4 10 5 11 33 12 6 13 7 14
REMARK SMILES IDX 31 15 8 16 32 17 2 18 1 19 3 20 9 22 10 23 11 24 18 25 19 26
REMARK SMILES IDX 20 27 21 29 22 30 29 31 23 32 25 33 24 34 26 35 27 36 28 37
REMARK H PARENT 16 6 16 7 3 21 20 28
REMARK Flexibility Score: inf
ROOT
ATOM      1  C   UNL     1       0.494  -0.796   1.018  1.00  0.00     0.113 C 
ATOM      2  C   UNL     1      -0.721  -1.660   1.541  1.00  0.00     0.276 C 
ATOM      3  N   UNL     1      -1.527  -0.659   2.059  1.00  0.00    -0.335 N 
ATOM      4  C   UNL     1      -1.224   0.651   1.216  1.00  0.00     0.274 C 
ATOM      5  C   UNL     1      -0.501  -0.161  -0.041  1.00  0.00     0.096 C 
ATOM      6  H   UNL     1      -1.307  -0.503   3.043  1.00  0.00     0.347 HD
ATOM      7  H   UNL     1      -2.513  -0.914   2.001  1.00  0.00     0.347 HD
ENDROOT
BRANCH   1   8
ATOM      8  S   UNL     1       1.187  -2.126  -0.163  1.00  0.00    -0.118 SA
BRANCH   8   9
ATOM      9  C   UNL     1       2.788  -1.353  -0.432  1.00  0.00     0.016 C 
ATOM     10  C   UNL     1       5.252   1.200  -0.954  1.00  0.00     0.131 C 
ATOM     11  C   UNL     1       6.148  -0.098  -0.807  1.00  0.00     0.235 C 
ATOM     12  C   UNL     1       4.277   0.389   0.163  1.00  0.00     0.113 C 
ATOM     13  O   UNL     1       7.319  -0.335  -0.500  1.00  0.00    -0.274 OA
ATOM     14  N   UNL     1       5.002  -0.870  -0.392  1.00  0.00    -0.305 N 
ATOM     15  C   UNL     1       2.932   0.176  -0.884  1.00  0.00     0.049 C 
ATOM     16  C   UNL     1       3.979  -1.855  -0.482  1.00  0.00     0.077 C 
ATOM     17  C   UNL     1       3.773  -0.236  -2.225  1.00  0.00     0.015 C 
BRANCH  10  18
ATOM     18  C   UNL     1       6.048   2.123   0.257  1.00  0.00     0.125 C 
ATOM     19  C   UNL     1       6.845   2.999  -0.898  1.00  0.00     0.039 C 
BRANCH  18  20
ATOM     20  O   UNL     1       4.910   3.132   0.301  1.00  0.00    -0.393 OA
ATOM     21  H   UNL     1       4.651   3.367  -0.604  1.00  0.00     0.210 HD
ENDBRANCH  18  20
ENDBRANCH  10  18
BRANCH  16  22
ATOM     22  C   UNL     1       4.194  -3.309  -0.373  1.00  0.00     0.089 C 
ATOM     23  O   UNL     1       3.759  -3.906  -1.409  1.00  0.00    -0.543 OA
ATOM     24  O   UNL     1       3.820  -3.835   0.869  1.00  0.00    -0.543 OA
ENDBRANCH  16  22
ENDBRANCH   8   9
ENDBRANCH   1   8
BRANCH   4  25
ATOM     25  C   UNL     1      -2.694   0.586   0.530  1.00  0.00     0.282 C 
ATOM     26  O   UNL     1      -2.781   0.740  -0.682  1.00  0.00    -0.268 OA
ATOM     27  N   UNL     1      -3.586   1.379   1.325  1.00  0.00    -0.321 N 
ATOM     28  H   UNL     1      -3.308   2.125   1.904  1.00  0.00     0.170 HD
BRANCH  27  29
ATOM     29  C   UNL     1      -4.940   0.933   1.162  1.00  0.00     0.042 A 
ATOM     30  C   UNL     1      -5.252  -0.299   1.678  1.00  0.00     0.026 A 
ATOM     31  C   UNL     1      -5.742   1.642   0.338  1.00  0.00     0.036 A 
ATOM     32  C   UNL     1      -6.409  -0.889   1.183  1.00  0.00     0.003 A 
ATOM     33  C   UNL     1      -6.861   0.983  -0.161  1.00  0.00    -0.001 A 
ATOM     34  C   UNL     1      -7.123  -0.336   0.128  1.00  0.00     0.010 A 
BRANCH  33  35
ATOM     35  C   UNL     1      -7.645   1.758  -1.130  1.00  0.00     0.072 C 
ATOM     36  O   UNL     1      -8.576   1.137  -1.692  1.00  0.00    -0.545 OA
ATOM     37  O   UNL     1      -7.142   2.897  -1.732  1.00  0.00    -0.545 OA
ENDBRANCH  33  35
ENDBRANCH  27  29
ENDBRANCH   4  25
TORSDOF 8
