REMARK SMILES C/C=C\C1=C(C(=O)[O-])N2C(=O)[C@@H](NC(=O)[C@H]([NH3+])c3ccc(O)cc3)[C@H]2SC1
REMARK SMILES IDX 13 1 14 2 15 3 12 5 4 6 5 7 27 8 9 9 26 10 10 11 25 12 11 13
REMARK SMILES IDX 3 14 1 15 2 16 6 17 7 18 8 19 16 20 17 21 18 25 19 26 24 27
REMARK SMILES IDX 20 28 23 29 21 30 22 31
REMARK H PARENT 13 4 17 22 17 23 17 24 22 32
REMARK Flexibility Score: inf
ROOT
ATOM      1  N   UNL     1      -0.965  -0.274   0.043  1.00  0.00    -0.336 N 
ATOM      2  C   UNL     1      -1.794  -0.437  -1.124  1.00  0.00     0.283 C 
ATOM      3  O   UNL     1      -1.163  -1.025  -2.059  1.00  0.00    -0.268 OA
ATOM      4  H   UNL     1      -1.061   0.483   0.664  1.00  0.00     0.164 HD
ENDROOT
BRANCH   1   5
ATOM      5  C   UNL     1       0.113  -1.413   0.242  1.00  0.00     0.205 C 
ATOM      6  C   UNL     1       3.825   0.686  -0.345  1.00  0.00    -0.013 C 
ATOM      7  C   UNL     1       3.446  -0.372   0.374  1.00  0.00     0.072 C 
ATOM      8  C   UNL     1       2.822   1.609  -0.972  1.00  0.00     0.109 C 
ATOM      9  N   UNL     1       2.107  -0.838   0.515  1.00  0.00    -0.293 N 
ATOM     10  S   UNL     1       1.108   1.119  -0.569  1.00  0.00    -0.129 SA
ATOM     11  C   UNL     1       0.961  -0.675   1.389  1.00  0.00     0.253 C 
ATOM     12  C   UNL     1       1.290  -0.767  -0.767  1.00  0.00     0.181 C 
ATOM     13  O   UNL     1       0.873  -1.109   2.579  1.00  0.00    -0.272 OA
BRANCH   6  14
ATOM     14  C   UNL     1       4.969   1.413   0.224  1.00  0.00     0.002 C 
ATOM     15  C   UNL     1       6.299   1.193  -1.153  1.00  0.00     0.035 C 
ATOM     16  C   UNL     1       6.217   1.145  -0.154  1.00  0.00    -0.030 C 
ENDBRANCH   6  14
BRANCH   7  17
ATOM     17  C   UNL     1       4.420  -1.249   1.041  1.00  0.00     0.088 C 
ATOM     18  O   UNL     1       4.141  -1.905   2.068  1.00  0.00    -0.543 OA
ATOM     19  O   UNL     1       5.295  -1.874   0.142  1.00  0.00    -0.543 OA
ENDBRANCH   7  17
ENDBRANCH   1   5
BRANCH   2  20
ATOM     20  C   UNL     1      -3.256  -1.076  -0.825  1.00  0.00     0.302 C 
BRANCH  20  21
ATOM     21  N   UNL     1      -3.643  -1.154  -2.358  1.00  0.00    -0.343 N 
ATOM     22  H   UNL     1      -3.418  -0.269  -2.812  1.00  0.00     0.345 HD
ATOM     23  H   UNL     1      -4.642  -1.337  -2.448  1.00  0.00     0.345 HD
ATOM     24  H   UNL     1      -3.118  -1.907  -2.804  1.00  0.00     0.345 HD
ENDBRANCH  20  21
BRANCH  20  25
ATOM     25  C   UNL     1      -3.967   0.373  -0.659  1.00  0.00     0.019 A 
ATOM     26  C   UNL     1      -5.325   0.236  -0.933  1.00  0.00     0.014 A 
ATOM     27  C   UNL     1      -3.696   0.949   0.577  1.00  0.00     0.014 A 
ATOM     28  C   UNL     1      -6.327   0.787  -0.193  1.00  0.00     0.046 A 
ATOM     29  C   UNL     1      -4.698   1.537   1.342  1.00  0.00     0.046 A 
ATOM     30  C   UNL     1      -6.022   1.422   0.978  1.00  0.00     0.115 A 
BRANCH  30  31
ATOM     31  O   UNL     1      -7.029   1.703   1.907  1.00  0.00    -0.508 OA
ATOM     32  H   UNL     1      -7.930   1.625   1.659  1.00  0.00     0.293 HD
ENDBRANCH  30  31
ENDBRANCH  20  25
ENDBRANCH   2  20
TORSDOF 7
