REMARK SMILES NC(=[NH2+])NCCC[C@H]([NH3+])C(=O)[O-]
REMARK SMILES IDX 6 1 5 2 4 3 3 4 2 5 1 8 7 12 8 13 9 14 10 18 11 19 12 20
REMARK H PARENT 3 6 3 7 1 9 1 10 4 11 9 15 9 16 9 17
REMARK Flexibility Score: inf
ROOT
ATOM      1  C   UNL     1       0.034  -1.103  -0.523  1.00  0.00     0.044 C 
ENDROOT
BRANCH   1   2
ATOM      2  C   UNL     1      -1.324  -1.306   0.078  1.00  0.00     0.197 C 
BRANCH   2   3
ATOM      3  N   UNL     1      -2.350  -0.580  -0.635  1.00  0.00    -0.278 N 
ATOM      4  N   UNL     1      -3.788  -0.447   1.101  1.00  0.00    -0.291 N 
ATOM      5  C   UNL     1      -3.360   0.089   0.128  1.00  0.00     0.338 C 
ATOM      6  H   UNL     1      -4.483  -0.004   1.641  1.00  0.00     0.256 HD
ATOM      7  H   UNL     1      -3.448  -1.331   1.367  1.00  0.00     0.256 HD
ATOM      8  N   UNL     1      -3.833   1.395  -0.219  1.00  0.00    -0.291 N 
ATOM      9  H   UNL     1      -4.529   1.828   0.327  1.00  0.00     0.256 HD
ATOM     10  H   UNL     1      -3.463   1.861  -1.003  1.00  0.00     0.256 HD
ATOM     11  H   UNL     1      -2.354  -0.546  -1.619  1.00  0.00     0.260 HD
ENDBRANCH   2   3
ENDBRANCH   1   2
BRANCH   1  12
ATOM     12  C   UNL     1       0.715   0.029   0.219  1.00  0.00     0.075 C 
BRANCH  12  13
ATOM     13  C   UNL     1       2.164  -0.654   0.589  1.00  0.00     0.227 C 
BRANCH  13  14
ATOM     14  N   UNL     1       2.060  -0.214   2.099  1.00  0.00    -0.350 N 
ATOM     15  H   UNL     1       1.775   0.764   2.149  1.00  0.00     0.345 HD
ATOM     16  H   UNL     1       2.968  -0.327   2.550  1.00  0.00     0.345 HD
ATOM     17  H   UNL     1       1.369  -0.794   2.575  1.00  0.00     0.345 HD
ENDBRANCH  13  14
BRANCH  13  18
ATOM     18  C   UNL     1       2.989   0.664   0.177  1.00  0.00     0.099 C 
ATOM     19  O   UNL     1       2.604   1.764   0.549  1.00  0.00    -0.544 OA
ATOM     20  O   UNL     1       4.089   0.360  -0.579  1.00  0.00    -0.544 OA
ENDBRANCH  13  18
ENDBRANCH  12  13
ENDBRANCH   1  12
TORSDOF 6
