REMARK SMILES C[C@H](C(=O)[O-])c1ccc(-c2ccccc2)c(F)c1
REMARK SMILES IDX 6 1 7 2 8 3 9 4 16 5 17 6 18 7 2 8 1 9 3 10 4 11 5 12 10 13
REMARK SMILES IDX 11 14 15 15 12 16 14 17 13 18
REMARK H PARENT
REMARK Flexibility Score: inf
ROOT
ATOM      1  C   UNL     1       1.840   0.053   0.120  1.00  0.00    -0.037 A 
ATOM      2  C   UNL     1       1.374   0.487  -1.101  1.00  0.00     0.005 A 
ATOM      3  C   UNL     1      -0.009   0.533  -1.237  1.00  0.00     0.012 A 
ATOM      4  C   UNL     1      -0.802  -0.393  -0.569  1.00  0.00     0.017 A 
ATOM      5  C   UNL     1      -0.102  -1.369   0.132  1.00  0.00     0.131 A 
ATOM      6  F   UNL     1      -0.771  -2.518   0.407  1.00  0.00    -0.206 F 
ATOM      7  C   UNL     1       1.188  -1.100   0.563  1.00  0.00     0.044 A 
ENDROOT
BRANCH   1   8
ATOM      8  C   UNL     1       3.434  -0.323   0.148  1.00  0.00     0.062 C 
ATOM      9  C   UNL     1       3.665   0.553   1.549  1.00  0.00     0.019 C 
BRANCH   8  10
ATOM     10  C   UNL     1       3.888   0.938  -0.793  1.00  0.00     0.049 C 
ATOM     11  O   UNL     1       3.800   0.499  -1.982  1.00  0.00    -0.550 OA
ATOM     12  O   UNL     1       3.267   2.129  -0.531  1.00  0.00    -0.550 OA
ENDBRANCH   8  10
ENDBRANCH   1   8
BRANCH   4  13
ATOM     13  C   UNL     1      -2.215  -0.153  -0.281  1.00  0.00    -0.015 A 
ATOM     14  C   UNL     1      -2.496   1.005   0.434  1.00  0.00     0.009 A 
ATOM     15  C   UNL     1      -3.210  -1.071  -0.444  1.00  0.00     0.009 A 
ATOM     16  C   UNL     1      -3.815   1.381   0.654  1.00  0.00     0.001 A 
ATOM     17  C   UNL     1      -4.328  -0.972   0.376  1.00  0.00     0.001 A 
ATOM     18  C   UNL     1      -4.708   0.321   0.714  1.00  0.00     0.000 A 
ENDBRANCH   4  13
TORSDOF 3
