REMARK SMILES CC1=C(C(=O)[O-])N2C(=O)[C@@H](NC(=O)[C@H]([NH3+])c3ccc(O)cc3)[C@H]2SC1
REMARK SMILES IDX 11 1 12 2 13 3 10 5 1 6 2 7 3 8 25 9 7 10 24 11 8 12 23 13
REMARK SMILES IDX 9 14 4 15 5 16 6 17 14 18 15 19 16 23 17 24 22 25 18 26
REMARK SMILES IDX 21 27 19 28 20 29
REMARK H PARENT 11 4 15 20 15 21 15 22 20 30
REMARK Flexibility Score: inf
ROOT
ATOM      1  N   UNL     1       0.232  -0.855  -0.361  1.00  0.00    -0.336 N 
ATOM      2  C   UNL     1       1.626  -0.591  -0.127  1.00  0.00     0.283 C 
ATOM      3  O   UNL     1       2.062   0.457   0.347  1.00  0.00    -0.268 OA
ATOM      4  H   UNL     1      -0.144  -1.565  -0.930  1.00  0.00     0.164 HD
ENDROOT
BRANCH   1   5
ATOM      5  C   UNL     1      -0.592   0.232   0.486  1.00  0.00     0.205 C 
ATOM      6  C   UNL     1      -5.526   1.115  -1.778  1.00  0.00     0.043 C 
ATOM      7  C   UNL     1      -4.349   0.472  -1.358  1.00  0.00    -0.038 C 
ATOM      8  C   UNL     1      -3.968   0.600  -0.090  1.00  0.00     0.067 C 
ATOM      9  C   UNL     1      -3.738  -0.627  -2.178  1.00  0.00     0.104 C 
ATOM     10  N   UNL     1      -2.631   0.326   0.350  1.00  0.00    -0.294 N 
ATOM     11  S   UNL     1      -2.026  -0.978  -1.623  1.00  0.00    -0.129 SA
ATOM     12  C   UNL     1      -1.826  -0.771   0.857  1.00  0.00     0.253 C 
ATOM     13  C   UNL     1      -1.648   0.692  -0.763  1.00  0.00     0.181 C 
ATOM     14  O   UNL     1      -1.818  -1.158   2.069  1.00  0.00    -0.272 OA
BRANCH   8  15
ATOM     15  C   UNL     1      -4.932   0.875   0.963  1.00  0.00     0.088 C 
ATOM     16  O   UNL     1      -6.075   1.309   0.684  1.00  0.00    -0.543 OA
ATOM     17  O   UNL     1      -4.572   0.961   2.294  1.00  0.00    -0.543 OA
ENDBRANCH   8  15
ENDBRANCH   1   5
BRANCH   2  18
ATOM     18  C   UNL     1       2.527  -1.935   0.166  1.00  0.00     0.302 C 
BRANCH  18  19
ATOM     19  N   UNL     1       2.482  -1.712   1.763  1.00  0.00    -0.343 N 
ATOM     20  H   UNL     1       2.698  -0.738   1.976  1.00  0.00     0.345 HD
ATOM     21  H   UNL     1       3.168  -2.319   2.211  1.00  0.00     0.345 HD
ATOM     22  H   UNL     1       1.550  -1.937   2.111  1.00  0.00     0.345 HD
ENDBRANCH  18  19
BRANCH  18  23
ATOM     23  C   UNL     1       3.958  -1.160  -0.049  1.00  0.00     0.019 A 
ATOM     24  C   UNL     1       4.634  -0.691   0.988  1.00  0.00     0.014 A 
ATOM     25  C   UNL     1       4.121  -0.627  -1.315  1.00  0.00     0.014 A 
ATOM     26  C   UNL     1       5.505   0.382   0.825  1.00  0.00     0.046 A 
ATOM     27  C   UNL     1       5.164   0.281  -1.485  1.00  0.00     0.046 A 
ATOM     28  C   UNL     1       5.592   1.016  -0.388  1.00  0.00     0.115 A 
BRANCH  28  29
ATOM     29  O   UNL     1       5.800   2.386  -0.419  1.00  0.00    -0.508 OA
ATOM     30  H   UNL     1       6.090   2.834   0.351  1.00  0.00     0.293 HD
ENDBRANCH  28  29
ENDBRANCH  18  23
ENDBRANCH   2  18
TORSDOF 6
