REMARK SMILES O=C([O-])CC(O)(CC(=O)[O-])C(=O)[O-]
REMARK SMILES IDX 5 1 4 2 2 3 1 4 3 5 6 6 7 8 8 9 9 10 10 11 11 12 12 13 13 14
REMARK H PARENT 6 7
REMARK Flexibility Score: inf
ROOT
ATOM      1  C   UNL     1       0.214   0.287   0.091  1.00  0.00     0.114 C 
ENDROOT
BRANCH   1   2
ATOM      2  C   UNL     1      -0.815  -0.774  -0.107  1.00  0.00     0.094 C 
BRANCH   2   3
ATOM      3  C   UNL     1      -2.205  -0.334   0.082  1.00  0.00     0.045 C 
ATOM      4  O   UNL     1      -2.541  -0.028   1.267  1.00  0.00    -0.550 OA
ATOM      5  O   UNL     1      -3.194  -0.990  -0.658  1.00  0.00    -0.550 OA
ENDBRANCH   2   3
ENDBRANCH   1   2
BRANCH   1   6
ATOM      6  O   UNL     1       0.723   0.343   1.397  1.00  0.00    -0.383 OA
ATOM      7  H   UNL     1       0.992  -0.545   1.678  1.00  0.00     0.211 HD
ENDBRANCH   1   6
BRANCH   1   8
ATOM      8  C   UNL     1       1.407  -0.100  -0.781  1.00  0.00     0.094 C 
BRANCH   8   9
ATOM      9  C   UNL     1       2.127  -1.264  -0.214  1.00  0.00     0.045 C 
ATOM     10  O   UNL     1       2.190  -2.390  -0.768  1.00  0.00    -0.550 OA
ATOM     11  O   UNL     1       2.985  -1.007   0.862  1.00  0.00    -0.550 OA
ENDBRANCH   8   9
ENDBRANCH   1   8
BRANCH   1  12
ATOM     12  C   UNL     1      -0.187   1.638  -0.315  1.00  0.00     0.074 C 
ATOM     13  O   UNL     1       0.748   2.450  -0.593  1.00  0.00    -0.547 OA
ATOM     14  O   UNL     1      -1.451   2.167  -0.263  1.00  0.00    -0.547 OA
ENDBRANCH   1  12
TORSDOF 6
