REMARK SMILES O=C([O-])c1cn(C2CC2)c2cc(N3CC[NH2+]CC3)c(F)cc2c1=O
REMARK SMILES IDX 4 1 5 2 6 3 10 4 11 5 12 6 19 7 20 8 21 9 22 10 23 11 24 12
REMARK SMILES IDX 2 13 1 14 3 15 7 16 8 17 9 18 13 19 14 20 18 21 15 22 17 23
REMARK SMILES IDX 16 24
REMARK H PARENT 16 25 16 26
REMARK Flexibility Score: inf
ROOT
ATOM      1  C   UNL     1      -2.971   0.813  -0.561  1.00  0.00     0.062 A 
ATOM      2  C   UNL     1      -2.849  -0.563  -0.650  1.00  0.00     0.100 A 
ATOM      3  N   UNL     1      -1.701  -1.227  -0.469  1.00  0.00    -0.343 N 
ATOM      4  C   UNL     1      -0.571  -0.492  -0.329  1.00  0.00     0.054 A 
ATOM      5  C   UNL     1       0.657  -1.128  -0.232  1.00  0.00     0.056 A 
ATOM      6  C   UNL     1       1.730  -0.492   0.379  1.00  0.00     0.075 A 
ATOM      7  C   UNL     1       1.514   0.786   0.873  1.00  0.00     0.147 A 
ATOM      8  F   UNL     1       2.342   1.188   1.873  1.00  0.00    -0.205 F 
ATOM      9  C   UNL     1       0.455   1.572   0.445  1.00  0.00     0.055 A 
ATOM     10  C   UNL     1      -0.600   0.878  -0.135  1.00  0.00     0.049 A 
ATOM     11  C   UNL     1      -1.771   1.513  -0.531  1.00  0.00     0.198 A 
ATOM     12  O   UNL     1      -1.785   2.764  -0.634  1.00  0.00    -0.288 OA
ENDROOT
BRANCH   1  13
ATOM     13  C   UNL     1      -4.210   1.462  -0.104  1.00  0.00     0.077 C 
ATOM     14  O   UNL     1      -4.553   1.172   1.083  1.00  0.00    -0.545 OA
ATOM     15  O   UNL     1      -4.293   2.826  -0.408  1.00  0.00    -0.545 OA
ENDBRANCH   1  13
BRANCH   3  16
ATOM     16  C   UNL     1      -1.742  -2.579   0.081  1.00  0.00     0.087 C 
ATOM     17  C   UNL     1      -3.071  -3.213   0.177  1.00  0.00     0.027 C 
ATOM     18  C   UNL     1      -1.973  -3.752  -0.775  1.00  0.00     0.027 C 
ENDBRANCH   3  16
BRANCH   6  19
ATOM     19  N   UNL     1       3.074  -0.901   0.108  1.00  0.00    -0.358 N 
ATOM     20  C   UNL     1       3.475  -1.019  -1.293  1.00  0.00     0.178 C 
ATOM     21  C   UNL     1       4.134  -0.687   1.061  1.00  0.00     0.178 C 
ATOM     22  C   UNL     1       4.222   0.277  -1.593  1.00  0.00     0.282 C 
ATOM     23  C   UNL     1       5.101   0.388   0.648  1.00  0.00     0.282 C 
ATOM     24  N   UNL     1       5.386   0.414  -0.755  1.00  0.00    -0.343 N 
ATOM     25  H   UNL     1       5.836   1.303  -0.975  1.00  0.00     0.346 HD
ATOM     26  H   UNL     1       5.985  -0.388  -0.950  1.00  0.00     0.346 HD
ENDBRANCH   6  19
TORSDOF 3
