REMARK SMILES C=CC1=C(C(=O)[O-])N2C(=O)[C@@H](NC(=O)/C(=N\O)c3csc(N)n3)[C@H]2SC1
REMARK SMILES IDX 12 1 13 2 14 3 11 5 3 6 4 7 26 8 8 9 25 10 9 11 24 12 10 13
REMARK SMILES IDX 2 14 1 15 5 16 6 17 7 18 15 19 16 20 18 21 19 22 23 23 20 24
REMARK SMILES IDX 21 25 22 26 17 29
REMARK H PARENT 12 4 22 27 22 28 17 30
REMARK Flexibility Score: inf
ROOT
ATOM      1  N   UNL     1       0.632  -1.494   0.107  1.00  0.00    -0.336 N 
ATOM      2  C   UNL     1       1.660  -0.891  -0.689  1.00  0.00     0.276 C 
ATOM      3  O   UNL     1       1.429   0.312  -1.023  1.00  0.00    -0.267 OA
ATOM      4  H   UNL     1       0.343  -2.431   0.013  1.00  0.00     0.164 HD
ENDROOT
BRANCH   1   5
ATOM      5  C   UNL     1       0.007  -0.462   1.173  1.00  0.00     0.206 C 
ATOM      6  C   UNL     1      -3.558   0.746  -0.743  1.00  0.00    -0.013 C 
ATOM      7  C   UNL     1      -3.286   0.509   0.543  1.00  0.00     0.072 C 
ATOM      8  C   UNL     1      -3.062  -0.268  -1.735  1.00  0.00     0.109 C 
ATOM      9  N   UNL     1      -2.021  -0.002   0.987  1.00  0.00    -0.293 N 
ATOM     10  S   UNL     1      -1.430  -0.910  -1.224  1.00  0.00    -0.129 SA
ATOM     11  C   UNL     1      -1.406  -1.271   1.329  1.00  0.00     0.253 C 
ATOM     12  C   UNL     1      -0.904   0.427   0.039  1.00  0.00     0.181 C 
ATOM     13  O   UNL     1      -1.573  -1.918   2.397  1.00  0.00    -0.272 OA
BRANCH   6  14
ATOM     14  C   UNL     1      -4.849   1.348  -1.109  1.00  0.00    -0.001 C 
ATOM     15  C   UNL     1      -5.304   1.347  -1.632  1.00  0.00     0.009 C 
ENDBRANCH   6  14
BRANCH   7  16
ATOM     16  C   UNL     1      -4.287   0.708   1.599  1.00  0.00     0.088 C 
ATOM     17  O   UNL     1      -5.360   1.299   1.260  1.00  0.00    -0.543 OA
ATOM     18  O   UNL     1      -3.901   0.986   2.914  1.00  0.00    -0.543 OA
ENDBRANCH   7  16
ENDBRANCH   1   5
BRANCH   2  19
ATOM     19  C   UNL     1       3.079  -1.256  -0.575  1.00  0.00     0.193 C 
ATOM     20  N   UNL     1       3.339  -2.496  -0.329  1.00  0.00    -0.081 NA
BRANCH  19  21
ATOM     21  C   UNL     1       4.085  -0.214  -0.311  1.00  0.00     0.111 A 
ATOM     22  C   UNL     1       5.446  -0.488  -0.247  1.00  0.00     0.099 A 
ATOM     23  N   UNL     1       3.789   0.946   0.265  1.00  0.00    -0.218 NA
ATOM     24  S   UNL     1       6.076   1.109  -0.327  1.00  0.00    -0.105 S 
ATOM     25  C   UNL     1       4.591   1.954  -0.158  1.00  0.00     0.180 A 
BRANCH  25  26
ATOM     26  N   UNL     1       4.360   3.365  -0.028  1.00  0.00    -0.375 N 
ATOM     27  H   UNL     1       5.020   4.006  -0.377  1.00  0.00     0.159 HD
ATOM     28  H   UNL     1       3.540   3.691   0.409  1.00  0.00     0.159 HD
ENDBRANCH  25  26
ENDBRANCH  19  21
BRANCH  20  29
ATOM     29  O   UNL     1       2.449  -3.386   0.188  1.00  0.00    -0.410 OA
ATOM     30  H   UNL     1       2.708  -4.273   0.341  1.00  0.00     0.330 HD
ENDBRANCH  20  29
ENDBRANCH   2  19
TORSDOF 7
