REMARK SMILES O=C([O-])CCc1nc(-c2ccccc2)c(-c2ccccc2)o1
REMARK SMILES IDX 5 1 4 2 2 3 1 4 3 5 6 6 7 7 22 8 8 9 15 10 9 11 10 12 14 13
REMARK SMILES IDX 11 14 13 15 12 16 16 17 17 18 21 19 18 20 20 21 19 22
REMARK H PARENT
REMARK Flexibility Score: inf
ROOT
ATOM      1  C   UNL     1       3.161  -0.712   0.973  1.00  0.00     0.103 C 
ENDROOT
BRANCH   1   2
ATOM      2  C   UNL     1       4.215  -0.034   0.143  1.00  0.00     0.062 C 
BRANCH   2   3
ATOM      3  C   UNL     1       4.347  -0.827  -1.120  1.00  0.00     0.042 C 
ATOM      4  O   UNL     1       4.008  -2.048  -1.146  1.00  0.00    -0.550 OA
ATOM      5  O   UNL     1       5.371  -0.411  -1.977  1.00  0.00    -0.550 OA
ENDBRANCH   2   3
ENDBRANCH   1   2
BRANCH   1   6
ATOM      6  C   UNL     1       1.844  -0.382   0.371  1.00  0.00     0.195 A 
ATOM      7  N   UNL     1       1.377   0.785  -0.092  1.00  0.00    -0.213 NA
ATOM      8  O   UNL     1       0.810  -1.175   0.436  1.00  0.00    -0.440 OA
ATOM      9  C   UNL     1       0.023   0.733  -0.149  1.00  0.00     0.117 A 
ATOM     10  C   UNL     1      -0.309  -0.524   0.316  1.00  0.00     0.162 A 
BRANCH   9  11
ATOM     11  C   UNL     1      -0.867   1.887  -0.010  1.00  0.00     0.004 A 
ATOM     12  C   UNL     1      -2.130   1.786   0.560  1.00  0.00     0.010 A 
ATOM     13  C   UNL     1      -0.328   3.168  -0.017  1.00  0.00     0.010 A 
ATOM     14  C   UNL     1      -2.947   2.884   0.632  1.00  0.00     0.001 A 
ATOM     15  C   UNL     1      -1.130   4.298  -0.084  1.00  0.00     0.001 A 
ATOM     16  C   UNL     1      -2.446   4.143   0.329  1.00  0.00     0.000 A 
ENDBRANCH   9  11
BRANCH  10  17
ATOM     17  C   UNL     1      -1.636  -1.153   0.371  1.00  0.00     0.020 A 
ATOM     18  C   UNL     1      -1.876  -2.132   1.329  1.00  0.00     0.012 A 
ATOM     19  C   UNL     1      -2.341  -1.307  -0.811  1.00  0.00     0.012 A 
ATOM     20  C   UNL     1      -2.857  -3.100   1.159  1.00  0.00     0.001 A 
ATOM     21  C   UNL     1      -3.141  -2.415  -1.061  1.00  0.00     0.001 A 
ATOM     22  C   UNL     1      -3.148  -3.465  -0.151  1.00  0.00     0.000 A 
ENDBRANCH  10  17
ENDBRANCH   1   6
TORSDOF 5
