REMARK SMILES C[C@@H](O)C[NH+]1CC[N@@H+](CC(=O)[O-])CC[NH+](CC(=O)[O-])CC[N@H+](CC(=O)[O-])CC1
REMARK SMILES IDX 21 1 22 2 27 4 28 5 5 6 4 8 2 9 1 10 3 11 6 13 23 15 24 16
REMARK SMILES IDX 25 17 26 18 20 19 15 20 14 22 13 23 8 24 7 26 9 28 10 29
REMARK SMILES IDX 11 30 12 31 16 32 17 33 18 34 19 35
REMARK H PARENT 22 3 5 7 3 12 15 21 8 25
REMARK Flexibility Score: 60.00
ROOT
ATOM      1  C   UNL     1      -0.706   1.950   0.139  1.00  0.00     0.324 C 
ENDROOT
BRANCH   1   2
ATOM      2  N   UNL     1       0.239   2.812   0.785  1.00  0.00    -0.321 N 
ATOM      3  H   UNL     1      -0.281   3.089   1.618  1.00  0.00     0.348 HD
BRANCH   2   4
ATOM      4  C   UNL     1       1.456   2.174   1.194  1.00  0.00     0.324 C 
BRANCH   4   5
ATOM      5  C   UNL     1       1.508   0.702   0.957  1.00  0.00     0.324 C 
BRANCH   5   6
ATOM      6  N   UNL     1       2.549   0.282   0.051  1.00  0.00    -0.323 N 
ATOM      7  H   UNL     1       2.972   1.065  -0.447  1.00  0.00     0.348 HD
BRANCH   6   8
ATOM      8  C   UNL     1       3.522  -0.456   0.858  1.00  0.00     0.294 C 
BRANCH   8   9
ATOM      9  C   UNL     1       4.619   0.753   1.262  1.00  0.00     0.166 C 
ATOM     10  C   UNL     1       4.967   0.001   2.726  1.00  0.00     0.044 C 
BRANCH   9  11
ATOM     11  O   UNL     1       5.768  -0.009   0.558  1.00  0.00    -0.388 OA
ATOM     12  H   UNL     1       5.737  -0.945   0.810  1.00  0.00     0.211 HD
ENDBRANCH   9  11
ENDBRANCH   8   9
ENDBRANCH   6   8
BRANCH   6  13
ATOM     13  C   UNL     1       1.940  -0.687  -0.858  1.00  0.00     0.324 CG0
ATOM     14  G   UNL     1       1.000  -1.519  -0.003  1.00  0.00     0.000 G0
ENDBRANCH   6  13
ENDBRANCH   5   6
ENDBRANCH   4   5
ENDBRANCH   2   4
BRANCH   2  15
ATOM     15  C   UNL     1       0.586   3.987   0.034  1.00  0.00     0.316 C 
BRANCH  15  16
ATOM     16  C   UNL     1      -0.358   4.300  -1.057  1.00  0.00     0.096 C 
ATOM     17  O   UNL     1      -0.583   3.522  -2.029  1.00  0.00    -0.544 OA
ATOM     18  O   UNL     1      -0.899   5.590  -1.061  1.00  0.00    -0.544 OA
ENDBRANCH  15  16
ENDBRANCH   2  15
ENDBRANCH   1   2
BRANCH   1  19
ATOM     19  C   UNL     1      -1.204   0.940   1.123  1.00  0.00     0.324 C 
BRANCH  19  20
ATOM     20  N   UNL     1      -2.137  -0.010   0.604  1.00  0.00    -0.321 N 
ATOM     21  H   UNL     1      -2.157  -0.804   1.244  1.00  0.00     0.348 HD
BRANCH  20  22
ATOM     22  C   UNL     1      -1.749  -0.648  -0.618  1.00  0.00     0.324 C 
BRANCH  22  23
ATOM     23  C   UNL     1      -1.304  -2.093  -0.420  1.00  0.00     0.324 C 
BRANCH  23  24
ATOM     24  N   UNL     1       0.053  -2.221  -0.868  1.00  0.00    -0.321 N 
ATOM     25  H   UNL     1       0.011  -1.800  -1.796  1.00  0.00     0.348 HD
BRANCH  24  26
ATOM     26  C   UNL     1       1.000  -1.519  -0.003  1.00  0.00     0.324 CG0
ATOM     27  G   UNL     1       1.940  -0.687  -0.858  1.00  0.00     0.000 G0
ENDBRANCH  24  26
BRANCH  24  28
ATOM     28  C   UNL     1       0.531  -3.557  -0.998  1.00  0.00     0.316 C 
BRANCH  28  29
ATOM     29  C   UNL     1      -0.497  -4.606  -0.911  1.00  0.00     0.096 C 
ATOM     30  O   UNL     1      -0.384  -5.573  -1.727  1.00  0.00    -0.544 OA
ATOM     31  O   UNL     1      -0.864  -4.999   0.382  1.00  0.00    -0.544 OA
ENDBRANCH  28  29
ENDBRANCH  24  28
ENDBRANCH  23  24
ENDBRANCH  22  23
ENDBRANCH  20  22
BRANCH  20  32
ATOM     32  C   UNL     1      -3.442   0.593   0.569  1.00  0.00     0.316 C 
BRANCH  32  33
ATOM     33  C   UNL     1      -4.492  -0.302   0.038  1.00  0.00     0.096 C 
ATOM     34  O   UNL     1      -4.304  -1.020  -0.984  1.00  0.00    -0.544 OA
ATOM     35  O   UNL     1      -5.815   0.095   0.254  1.00  0.00    -0.544 OA
ENDBRANCH  32  33
ENDBRANCH  20  32
ENDBRANCH  19  20
ENDBRANCH   1  19
TORSDOF 9
