REMARK SMILES CCOc1ccc2ccccc2c1C(=O)N[C@@H]1C(=O)N2[C@@H]1SC(C)(C)[C@@H]2C(=O)[O-]
REMARK SMILES IDX 4 1 5 2 6 3 7 4 8 5 9 6 10 7 11 8 12 9 13 10 3 11 2 12 1 13
REMARK SMILES IDX 14 14 15 15 16 16 17 18 18 19 21 20 19 21 20 22 22 23 26 24
REMARK SMILES IDX 23 25 24 26 25 27 27 28 28 29 29 30
REMARK H PARENT 16 17
REMARK Flexibility Score: inf
ROOT
ATOM      1  C   UNL     1      -2.269   1.103  -1.360  1.00  0.00     0.132 A 
ATOM      2  C   UNL     1      -3.091   0.529  -2.305  1.00  0.00     0.048 A 
ATOM      3  C   UNL     1      -3.587  -0.745  -2.085  1.00  0.00     0.012 A 
ATOM      4  C   UNL     1      -3.394  -1.368  -0.859  1.00  0.00    -0.017 A 
ATOM      5  C   UNL     1      -4.093  -2.513  -0.511  1.00  0.00     0.009 A 
ATOM      6  C   UNL     1      -4.320  -2.807   0.806  1.00  0.00     0.001 A 
ATOM      7  C   UNL     1      -3.593  -2.127   1.774  1.00  0.00     0.001 A 
ATOM      8  C   UNL     1      -2.578  -1.293   1.395  1.00  0.00     0.010 A 
ATOM      9  C   UNL     1      -2.610  -0.785   0.104  1.00  0.00    -0.002 A 
ATOM     10  C   UNL     1      -1.916   0.351  -0.246  1.00  0.00     0.089 A 
ENDROOT
BRANCH   1  11
ATOM     11  O   UNL     1      -1.968   2.466  -1.343  1.00  0.00    -0.493 OA
BRANCH  11  12
ATOM     12  C   UNL     1      -2.091   3.252  -0.174  1.00  0.00     0.226 C 
ATOM     13  C   UNL     1      -3.489   3.697   0.055  1.00  0.00     0.049 C 
ENDBRANCH  11  12
ENDBRANCH   1  11
BRANCH  10  14
ATOM     14  C   UNL     1      -0.772   0.766   0.576  1.00  0.00     0.256 C 
ATOM     15  O   UNL     1      -0.879   1.124   1.769  1.00  0.00    -0.269 OA
ATOM     16  N   UNL     1       0.540   0.632   0.071  1.00  0.00    -0.337 N 
ATOM     17  H   UNL     1       0.834  -0.141  -0.463  1.00  0.00     0.164 HD
BRANCH  16  18
ATOM     18  C   UNL     1       1.507   1.856   0.450  1.00  0.00     0.205 C 
ATOM     19  C   UNL     1       2.279   1.724  -0.986  1.00  0.00     0.249 C 
ATOM     20  C   UNL     1       2.829   0.917   0.983  1.00  0.00     0.176 C 
ATOM     21  O   UNL     1       2.510   2.618  -1.804  1.00  0.00    -0.272 OA
ATOM     22  N   UNL     1       2.701   0.492  -0.466  1.00  0.00    -0.317 N 
ATOM     23  S   UNL     1       1.968  -0.679   1.599  1.00  0.00    -0.125 SA
ATOM     24  C   UNL     1       3.643  -0.793  -0.536  1.00  0.00     0.148 C 
ATOM     25  C   UNL     1       2.581  -1.721   0.380  1.00  0.00     0.038 C 
ATOM     26  C   UNL     1       3.391  -2.920   0.777  1.00  0.00     0.025 C 
ATOM     27  C   UNL     1       1.664  -2.206  -0.715  1.00  0.00     0.025 C 
BRANCH  24  28
ATOM     28  C   UNL     1       4.621  -0.344   0.716  1.00  0.00     0.065 C 
ATOM     29  O   UNL     1       4.506  -0.920   1.775  1.00  0.00    -0.548 OA
ATOM     30  O   UNL     1       5.908  -0.306   0.159  1.00  0.00    -0.548 OA
ENDBRANCH  24  28
ENDBRANCH  16  18
ENDBRANCH  10  14
TORSDOF 5
