REMARK SMILES O=C([O-])[C@H]1/C(=C/CO)O[C@@H]2CC(=O)N21
REMARK SMILES IDX 4 1 5 2 6 3 9 4 10 5 11 6 12 7 13 8 14 9 2 10 1 11 3 12 7 13
REMARK SMILES IDX 8 14
REMARK H PARENT 8 15
REMARK Flexibility Score: inf
ROOT
ATOM      1  C   UNL     1      -0.474   0.697  -0.598  1.00  0.00     0.200 C 
ATOM      2  C   UNL     1       0.896  -0.172  -0.434  1.00  0.00     0.126 C 
ATOM      3  C   UNL     1       2.068   0.330  -0.641  1.00  0.00     0.045 C 
ATOM      4  O   UNL     1       0.227  -1.179  -1.044  1.00  0.00    -0.472 OA
ATOM      5  C   UNL     1      -0.837  -1.643   0.012  1.00  0.00     0.283 C 
ATOM      6  C   UNL     1      -2.145  -1.278  -0.965  1.00  0.00     0.169 C 
ATOM      7  C   UNL     1      -2.438  -0.739   0.415  1.00  0.00     0.232 C 
ATOM      8  O   UNL     1      -3.040  -1.346   1.352  1.00  0.00    -0.275 OA
ATOM      9  N   UNL     1      -1.110  -0.172   0.574  1.00  0.00    -0.291 N 
ENDROOT
BRANCH   1  10
ATOM     10  C   UNL     1       0.056   1.862   0.425  1.00  0.00     0.072 C 
ATOM     11  O   UNL     1      -0.568   2.144   1.178  1.00  0.00    -0.547 OA
ATOM     12  O   UNL     1       0.507   2.885  -0.430  1.00  0.00    -0.547 OA
ENDBRANCH   1  10
BRANCH   3  13
ATOM     13  C   UNL     1       3.139  -0.710  -0.553  1.00  0.00     0.187 C 
BRANCH  13  14
ATOM     14  O   UNL     1       3.717  -0.680   0.710  1.00  0.00    -0.392 OA
ATOM     15  H   UNL     1       4.106   0.195   0.867  1.00  0.00     0.211 HD
ENDBRANCH  13  14
ENDBRANCH   3  13
TORSDOF 3
