REMARK SMILES CO/N=C(\C(=O)N[C@@H]1C(=O)N2C(C(=O)[O-])=C(COC(N)=O)CS[C@H]12)c1ccco1
REMARK SMILES IDX 8 1 9 2 10 3 11 4 12 5 16 6 22 7 23 8 24 9 7 10 5 11 6 12
REMARK SMILES IDX 4 14 3 15 2 16 1 17 25 18 26 19 29 20 27 21 28 22 13 23
REMARK SMILES IDX 14 24 15 25 17 26 18 27 19 28 20 29 21 30
REMARK H PARENT 7 13 20 31 20 32
REMARK Flexibility Score: inf
ROOT
ATOM      1  C   UNL     1       0.783  -0.340  -1.024  1.00  0.00     0.206 C 
ATOM      2  C   UNL     1      -0.562   0.493  -1.421  1.00  0.00     0.253 C 
ATOM      3  O   UNL     1      -0.604   0.931  -2.615  1.00  0.00    -0.272 OA
ATOM      4  N   UNL     1      -1.295  -0.673  -0.966  1.00  0.00    -0.293 N 
ATOM      5  C   UNL     1      -2.615  -1.088  -0.604  1.00  0.00     0.071 C 
ATOM      6  C   UNL     1      -3.126  -1.010   0.623  1.00  0.00     0.003 C 
ATOM      7  C   UNL     1      -2.439  -0.288   1.742  1.00  0.00     0.108 C 
ATOM      8  S   UNL     1      -0.828   0.382   1.196  1.00  0.00    -0.129 SA
ATOM      9  C   UNL     1      -0.272  -1.073   0.091  1.00  0.00     0.181 C 
ENDROOT
BRANCH   1  10
ATOM     10  N   UNL     1       1.359   0.770  -0.020  1.00  0.00    -0.336 N 
ATOM     11  C   UNL     1       2.453   0.307   0.750  1.00  0.00     0.277 C 
ATOM     12  O   UNL     1       2.293  -0.800   1.340  1.00  0.00    -0.267 OA
ATOM     13  H   UNL     1       0.991   1.680   0.053  1.00  0.00     0.164 HD
BRANCH  11  14
ATOM     14  C   UNL     1       3.805   0.852   0.720  1.00  0.00     0.209 C 
ATOM     15  N   UNL     1       3.983   2.026   0.193  1.00  0.00    -0.077 NA
BRANCH  15  16
ATOM     16  O   UNL     1       3.068   2.603  -0.663  1.00  0.00    -0.398 OA
ATOM     17  C   UNL     1       3.311   2.779  -2.018  1.00  0.00     0.315 C 
ENDBRANCH  15  16
BRANCH  14  18
ATOM     18  C   UNL     1       4.951  -0.070   0.747  1.00  0.00     0.161 A 
ATOM     19  C   UNL     1       5.026  -1.131  -0.147  1.00  0.00     0.053 A 
ATOM     20  O   UNL     1       5.397  -0.554   1.892  1.00  0.00    -0.462 OA
ATOM     21  C   UNL     1       6.004  -1.988   0.346  1.00  0.00     0.043 A 
ATOM     22  C   UNL     1       6.308  -1.429   1.581  1.00  0.00     0.196 A 
ENDBRANCH  14  18
ENDBRANCH  11  14
ENDBRANCH   1  10
BRANCH   5  23
ATOM     23  C   UNL     1      -3.406  -1.553  -1.752  1.00  0.00     0.088 C 
ATOM     24  O   UNL     1      -3.148  -2.659  -2.318  1.00  0.00    -0.543 OA
ATOM     25  O   UNL     1      -4.464  -0.858  -2.283  1.00  0.00    -0.543 OA
ENDBRANCH   5  23
BRANCH   6  26
ATOM     26  C   UNL     1      -4.619  -1.006   0.775  1.00  0.00     0.269 C 
BRANCH  26  27
ATOM     27  O   UNL     1      -5.083   0.218   0.279  1.00  0.00    -0.445 OA
BRANCH  27  28
ATOM     28  C   UNL     1      -5.412   1.330   1.001  1.00  0.00     0.404 C 
ATOM     29  N   UNL     1      -5.504   2.577   0.316  1.00  0.00    -0.335 N 
ATOM     30  O   UNL     1      -5.366   1.251   2.241  1.00  0.00    -0.225 OA
ATOM     31  H   UNL     1      -5.538   2.597  -0.668  1.00  0.00     0.163 HD
ATOM     32  H   UNL     1      -5.533   3.418   0.827  1.00  0.00     0.163 HD
ENDBRANCH  27  28
ENDBRANCH  26  27
ENDBRANCH   6  26
TORSDOF 8
