REMARK SMILES O=C([O-])CCCc1ccccc1
REMARK SMILES IDX 5 1 4 2 2 3 1 4 3 5 6 6 7 7 8 8 12 9 9 10 11 11 10 12
REMARK H PARENT
REMARK Flexibility Score: inf
ROOT
ATOM      1  C   UNL     1       1.133  -0.152  -0.436  1.00  0.00     0.011 C 
ENDROOT
BRANCH   1   2
ATOM      2  C   UNL     1       2.117  -1.039   0.288  1.00  0.00     0.053 C 
BRANCH   2   3
ATOM      3  C   UNL     1       3.492  -0.496   0.287  1.00  0.00     0.041 C 
ATOM      4  O   UNL     1       4.322  -1.052   1.058  1.00  0.00    -0.550 OA
ATOM      5  O   UNL     1       3.873   0.687  -0.299  1.00  0.00    -0.550 OA
ENDBRANCH   2   3
ENDBRANCH   1   2
BRANCH   1   6
ATOM      6  C   UNL     1       0.256   0.487   0.634  1.00  0.00     0.036 C 
BRANCH   6   7
ATOM      7  C   UNL     1      -1.180   0.291   0.330  1.00  0.00    -0.048 A 
ATOM      8  C   UNL     1      -1.795   1.291  -0.412  1.00  0.00     0.004 A 
ATOM      9  C   UNL     1      -1.903  -0.818   0.699  1.00  0.00     0.004 A 
ATOM     10  C   UNL     1      -3.164   1.396  -0.397  1.00  0.00     0.000 A 
ATOM     11  C   UNL     1      -3.271  -0.870   0.456  1.00  0.00     0.000 A 
ATOM     12  C   UNL     1      -3.880   0.278  -0.006  1.00  0.00     0.000 A 
ENDBRANCH   6   7
ENDBRANCH   1   6
TORSDOF 4
