REMARK SMILES Cc1ccc(NC(=O)C2(c3ccc4c(c3)OC(F)(F)O4)CC2)nc1-c1cccc(C(=O)[O-])c1
REMARK SMILES IDX 1 1 2 2 3 3 4 4 5 5 23 6 24 7 25 8 26 9 33 10 27 11 29 12
REMARK SMILES IDX 28 13 30 14 31 15 32 16 6 17 7 18 8 20 9 21 21 22 22 23
REMARK SMILES IDX 10 24 11 25 15 26 12 27 14 28 13 29 16 30 20 31 17 32 18 33
REMARK SMILES IDX 19 34
REMARK H PARENT 6 19
REMARK Flexibility Score: inf
ROOT
ATOM      1  C   UNL     1       3.687   1.924   1.718  1.00  0.00     0.047 C 
ATOM      2  C   UNL     1       3.086   0.633   1.265  1.00  0.00    -0.025 A 
ATOM      3  C   UNL     1       2.241  -0.090   2.093  1.00  0.00     0.009 A 
ATOM      4  C   UNL     1       1.447  -1.068   1.514  1.00  0.00     0.047 A 
ATOM      5  C   UNL     1       1.267  -1.161   0.141  1.00  0.00     0.133 A 
ATOM      6  N   UNL     1       2.062  -0.374  -0.616  1.00  0.00    -0.230 NA
ATOM      7  C   UNL     1       3.018   0.416  -0.104  1.00  0.00     0.076 A 
ENDROOT
BRANCH   7   8
ATOM      8  C   UNL     1       4.225   0.723  -0.876  1.00  0.00     0.001 A 
ATOM      9  C   UNL     1       4.252   0.450  -2.237  1.00  0.00     0.010 A 
ATOM     10  C   UNL     1       5.425   1.060  -0.285  1.00  0.00     0.020 A 
ATOM     11  C   UNL     1       5.448   0.248  -2.914  1.00  0.00     0.001 A 
ATOM     12  C   UNL     1       6.648   0.733  -0.858  1.00  0.00    -0.002 A 
ATOM     13  C   UNL     1       6.604   0.251  -2.158  1.00  0.00     0.010 A 
BRANCH  12  14
ATOM     14  C   UNL     1       7.839   0.465  -0.042  1.00  0.00     0.072 C 
ATOM     15  O   UNL     1       8.563   1.383   0.393  1.00  0.00    -0.545 OA
ATOM     16  O   UNL     1       7.943  -0.843   0.443  1.00  0.00    -0.545 OA
ENDBRANCH  12  14
ENDBRANCH   7   8
BRANCH   5  17
ATOM     17  N   UNL     1      -0.040  -1.430  -0.380  1.00  0.00    -0.310 N 
ATOM     18  C   UNL     1      -0.983  -0.354  -0.463  1.00  0.00     0.236 C 
ATOM     19  H   UNL     1      -0.286  -2.336  -0.675  1.00  0.00     0.171 HD
ATOM     20  O   UNL     1      -0.750   0.626   0.306  1.00  0.00    -0.274 OA
BRANCH  18  21
ATOM     21  C   UNL     1      -2.376  -0.736  -0.851  1.00  0.00     0.075 C 
ATOM     22  C   UNL     1      -2.540  -1.530  -2.096  1.00  0.00     0.023 C 
ATOM     23  C   UNL     1      -2.772  -2.199  -0.748  1.00  0.00     0.023 C 
BRANCH  21  24
ATOM     24  C   UNL     1      -3.413   0.299  -0.586  1.00  0.00    -0.028 A 
ATOM     25  C   UNL     1      -3.221   1.256   0.404  1.00  0.00     0.009 A 
ATOM     26  C   UNL     1      -4.723   0.068  -0.951  1.00  0.00     0.055 A 
ATOM     27  C   UNL     1      -4.295   1.801   1.074  1.00  0.00     0.051 A 
ATOM     28  C   UNL     1      -5.802   0.549  -0.219  1.00  0.00     0.173 A 
ATOM     29  C   UNL     1      -5.569   1.279   0.941  1.00  0.00     0.172 A 
ATOM     30  O   UNL     1      -7.151   0.192  -0.123  1.00  0.00    -0.395 OA
ATOM     31  O   UNL     1      -6.681   1.158   1.780  1.00  0.00    -0.395 OA
ATOM     32  C   UNL     1      -7.512   0.126   1.255  1.00  0.00     0.586 C 
ATOM     33  F   UNL     1      -7.085  -1.094   1.715  1.00  0.00    -0.125 F 
ATOM     34  F   UNL     1      -8.843   0.361   1.464  1.00  0.00    -0.125 F 
ENDBRANCH  21  24
ENDBRANCH  18  21
ENDBRANCH   5  17
TORSDOF 5
