REMARK SMILES C[C@H]1[C@H](NC(=O)/C(=N\OC(C)(C)C(=O)[O-])c2csc(N)n2)C(=O)N1S(=O)(=O)[O-]
REMARK SMILES IDX 7 1 8 2 5 3 4 4 6 6 3 7 1 8 2 9 24 10 22 11 23 12 25 13
REMARK SMILES IDX 26 14 27 15 28 16 16 17 17 18 21 19 18 20 19 21 20 22 9 25
REMARK SMILES IDX 10 26 11 27 12 28 13 29 14 30 15 31
REMARK H PARENT 4 5 20 23 20 24
REMARK Flexibility Score: inf
ROOT
ATOM      1  C   UNL     1      -1.323   0.508   0.066  1.00  0.00     0.193 C 
ATOM      2  N   UNL     1      -2.254   1.402   0.233  1.00  0.00    -0.078 NA
ENDROOT
BRANCH   1   3
ATOM      3  C   UNL     1      -0.396   0.396   1.201  1.00  0.00     0.276 C 
ATOM      4  N   UNL     1       0.937   0.840   1.017  1.00  0.00    -0.337 N 
ATOM      5  H   UNL     1       1.189   1.537   0.369  1.00  0.00     0.164 HD
ATOM      6  O   UNL     1      -0.692  -0.217   2.259  1.00  0.00    -0.267 OA
BRANCH   4   7
ATOM      7  C   UNL     1       1.996   0.098   1.964  1.00  0.00     0.196 C 
ATOM      8  C   UNL     1       2.908  -2.172   1.833  1.00  0.00     0.035 C 
ATOM      9  C   UNL     1       2.393  -1.046   0.721  1.00  0.00     0.130 C 
ATOM     10  N   UNL     1       3.773  -0.281   0.759  1.00  0.00    -0.242 N 
ATOM     11  C   UNL     1       3.243   0.904   1.306  1.00  0.00     0.260 C 
ATOM     12  O   UNL     1       3.542   2.091   1.428  1.00  0.00    -0.271 OA
BRANCH  10  13
ATOM     13  S   UNL     1       4.937  -0.543  -0.469  1.00  0.00     0.186 S 
ATOM     14  O   UNL     1       5.936   0.562  -0.417  1.00  0.00    -0.220 OA
ATOM     15  O   UNL     1       4.332  -0.528  -1.852  1.00  0.00    -0.220 OA
ATOM     16  O   UNL     1       5.634  -2.045  -0.133  1.00  0.00    -0.731 OA
ENDBRANCH  10  13
ENDBRANCH   4   7
ENDBRANCH   1   3
BRANCH   1  17
ATOM     17  C   UNL     1      -0.881   0.194  -1.303  1.00  0.00     0.111 A 
ATOM     18  C   UNL     1      -0.159   1.135  -2.033  1.00  0.00     0.099 A 
ATOM     19  N   UNL     1      -0.558  -1.050  -1.657  1.00  0.00    -0.218 NA
ATOM     20  S   UNL     1      -0.016   0.289  -3.523  1.00  0.00    -0.105 S 
ATOM     21  C   UNL     1      -0.565  -1.246  -2.979  1.00  0.00     0.180 A 
BRANCH  21  22
ATOM     22  N   UNL     1      -0.368  -2.533  -3.582  1.00  0.00    -0.375 N 
ATOM     23  H   UNL     1      -0.382  -2.625  -4.562  1.00  0.00     0.159 HD
ATOM     24  H   UNL     1      -0.220  -3.325  -3.015  1.00  0.00     0.159 HD
ENDBRANCH  21  22
ENDBRANCH   1  17
BRANCH   2  25
ATOM     25  O   UNL     1      -3.041   1.211   1.358  1.00  0.00    -0.383 OA
BRANCH  25  26
ATOM     26  C   UNL     1      -4.426   1.018   1.077  1.00  0.00     0.171 C 
ATOM     27  C   UNL     1      -5.300   1.335   2.255  1.00  0.00     0.066 C 
ATOM     28  C   UNL     1      -4.819   1.960  -0.056  1.00  0.00     0.066 C 
BRANCH  26  29
ATOM     29  C   UNL     1      -4.689  -0.374   0.600  1.00  0.00     0.087 C 
ATOM     30  O   UNL     1      -4.352  -1.342   1.318  1.00  0.00    -0.546 OA
ATOM     31  O   UNL     1      -5.792  -0.565  -0.238  1.00  0.00    -0.546 OA
ENDBRANCH  26  29
ENDBRANCH  25  26
ENDBRANCH   2  25
TORSDOF 8
