REMARK SMILES N#Cc1cc(NC(=O)C(=O)[O-])c(Cl)c(NC(=O)C(=O)[O-])c1
REMARK SMILES IDX 3 1 4 2 5 3 12 4 13 5 14 6 21 7 2 8 1 9 6 10 7 11 8 13 9 14
REMARK SMILES IDX 10 15 11 16 15 17 16 18 17 20 18 21 19 22 20 23
REMARK H PARENT 6 12 15 19
REMARK Flexibility Score: inf
ROOT
ATOM      1  C   UNL     1      -0.070   1.919  -1.393  1.00  0.00     0.056 A 
ATOM      2  C   UNL     1       1.153   1.387  -1.002  1.00  0.00     0.047 A 
ATOM      3  C   UNL     1       1.225   0.523   0.063  1.00  0.00     0.063 A 
ATOM      4  C   UNL     1       0.080   0.127   0.743  1.00  0.00     0.088 A 
ATOM      5  Cl  UNL     1       0.158  -0.324   2.436  1.00  0.00    -0.080 Cl
ATOM      6  C   UNL     1      -1.115   0.296   0.080  1.00  0.00     0.063 A 
ATOM      7  C   UNL     1      -1.194   1.244  -0.932  1.00  0.00     0.047 A 
ENDROOT
BRANCH   1   8
ATOM      8  C   UNL     1      -0.148   3.269  -1.903  1.00  0.00     0.099 C 
ATOM      9  N   UNL     1      -0.311   4.399  -2.145  1.00  0.00    -0.192 NA
ENDBRANCH   1   8
BRANCH   3  10
ATOM     10  N   UNL     1       2.458   0.163   0.700  1.00  0.00    -0.319 N 
ATOM     11  C   UNL     1       3.463  -0.516  -0.023  1.00  0.00     0.271 C 
ATOM     12  H   UNL     1       2.605   0.391   1.646  1.00  0.00     0.170 HD
ATOM     13  O   UNL     1       3.696  -0.067  -1.185  1.00  0.00    -0.268 OA
BRANCH  11  14
ATOM     14  C   UNL     1       4.227  -1.638   0.475  1.00  0.00     0.131 C 
ATOM     15  O   UNL     1       3.989  -2.120   1.620  1.00  0.00    -0.540 OA
ATOM     16  O   UNL     1       5.419  -2.005  -0.113  1.00  0.00    -0.540 OA
ENDBRANCH  11  14
ENDBRANCH   3  10
BRANCH   6  17
ATOM     17  N   UNL     1      -2.304  -0.076   0.779  1.00  0.00    -0.319 N 
ATOM     18  C   UNL     1      -3.372  -0.720   0.074  1.00  0.00     0.271 C 
ATOM     19  H   UNL     1      -2.389   0.110   1.742  1.00  0.00     0.170 HD
ATOM     20  O   UNL     1      -3.545  -0.450  -1.148  1.00  0.00    -0.268 OA
BRANCH  18  21
ATOM     21  C   UNL     1      -4.358  -1.508   0.802  1.00  0.00     0.131 C 
ATOM     22  O   UNL     1      -5.564  -1.299   0.556  1.00  0.00    -0.540 OA
ATOM     23  O   UNL     1      -3.888  -2.605   1.518  1.00  0.00    -0.540 OA
ENDBRANCH  18  21
ENDBRANCH   6  17
TORSDOF 5
