REMARK SMILES CO[C@@]1(NC(=O)Cc2cccs2)C(=O)N2C(C(=O)[O-])=C(COC(N)=O)CS[C@@H]21
REMARK SMILES IDX 3 1 13 2 14 3 15 4 16 5 20 6 26 7 27 8 28 9 2 10 1 11 4 12
REMARK SMILES IDX 5 13 6 15 7 16 8 17 9 18 12 19 10 20 11 21 17 22 18 23 19 24
REMARK SMILES IDX 21 25 22 26 23 27 24 28 25 29
REMARK H PARENT 4 14 24 30 24 31
REMARK Flexibility Score: inf
ROOT
ATOM      1  C   UNL     1       0.581   0.366   0.310  1.00  0.00     0.252 C 
ATOM      2  C   UNL     1       0.001  -0.935   0.646  1.00  0.00     0.284 C 
ATOM      3  O   UNL     1       0.312  -1.799   1.522  1.00  0.00    -0.269 OA
ATOM      4  N   UNL     1      -1.310  -0.574   0.176  1.00  0.00    -0.288 N 
ATOM      5  C   UNL     1      -2.506  -1.078  -0.429  1.00  0.00     0.071 C 
ATOM      6  C   UNL     1      -2.775  -0.949  -1.722  1.00  0.00     0.003 C 
ATOM      7  C   UNL     1      -1.678  -1.303  -2.680  1.00  0.00     0.108 C 
ATOM      8  S   UNL     1      -0.054  -0.806  -1.997  1.00  0.00    -0.126 SA
ATOM      9  C   UNL     1      -0.641   0.483  -0.699  1.00  0.00     0.212 C 
ENDROOT
BRANCH   1  10
ATOM     10  O   UNL     1       0.290   1.355   1.268  1.00  0.00    -0.348 OA
ATOM     11  C   UNL     1       0.037   2.510   0.509  1.00  0.00     0.198 C 
ENDBRANCH   1  10
BRANCH   1  12
ATOM     12  N   UNL     1       1.842   0.443  -0.322  1.00  0.00    -0.317 N 
ATOM     13  C   UNL     1       2.865   1.156   0.388  1.00  0.00     0.227 C 
ATOM     14  H   UNL     1       2.009   0.030  -1.200  1.00  0.00     0.167 HD
ATOM     15  O   UNL     1       2.805   1.262   1.651  1.00  0.00    -0.275 OA
BRANCH  13  16
ATOM     16  C   UNL     1       4.008   1.823  -0.266  1.00  0.00     0.146 C 
BRANCH  16  17
ATOM     17  C   UNL     1       5.140   0.849  -0.269  1.00  0.00     0.014 A 
ATOM     18  C   UNL     1       6.452   1.036   0.153  1.00  0.00     0.016 A 
ATOM     19  S   UNL     1       5.426  -0.189  -1.605  1.00  0.00    -0.148 S 
ATOM     20  C   UNL     1       7.155  -0.150   0.057  1.00  0.00     0.012 A 
ATOM     21  C   UNL     1       7.019  -0.698  -1.215  1.00  0.00     0.065 A 
ENDBRANCH  16  17
ENDBRANCH  13  16
ENDBRANCH   1  12
BRANCH   5  22
ATOM     22  C   UNL     1      -3.419  -1.709   0.528  1.00  0.00     0.088 C 
ATOM     23  O   UNL     1      -3.590  -2.967   0.558  1.00  0.00    -0.543 OA
ATOM     24  O   UNL     1      -3.610  -1.105   1.779  1.00  0.00    -0.543 OA
ENDBRANCH   5  22
BRANCH   6  25
ATOM     25  C   UNL     1      -4.184  -0.939  -2.126  1.00  0.00     0.269 C 
BRANCH  25  26
ATOM     26  O   UNL     1      -5.017  -0.325  -1.192  1.00  0.00    -0.445 OA
BRANCH  26  27
ATOM     27  C   UNL     1      -5.078   1.025  -0.928  1.00  0.00     0.404 C 
ATOM     28  N   UNL     1      -6.004   1.511   0.027  1.00  0.00    -0.335 N 
ATOM     29  O   UNL     1      -4.067   1.708  -1.248  1.00  0.00    -0.225 OA
ATOM     30  H   UNL     1      -6.790   0.970   0.270  1.00  0.00     0.163 HD
ATOM     31  H   UNL     1      -5.862   2.390   0.447  1.00  0.00     0.163 HD
ENDBRANCH  26  27
ENDBRANCH  25  26
ENDBRANCH   6  25
TORSDOF 8
