REMARK SMILES O=C([O-])[C@@H]1N=C(c2ccccc2)c2cc(Cl)ccc2NC1=O
REMARK SMILES IDX 5 1 6 2 4 3 2 5 1 6 3 7 7 8 8 9 12 10 9 11 11 12 10 13 13 14
REMARK SMILES IDX 14 15 19 16 15 17 18 18 16 19 17 20 20 21 21 22 22 24
REMARK H PARENT 20 23
REMARK Flexibility Score: 90.00
ROOT
ATOM      1  N   UNL     1      -0.850  -1.181  -0.567  1.00  0.00    -0.265 NA
ATOM      2  C   UNL     1       0.116  -0.313  -0.641  1.00  0.00     0.075 C 
ENDROOT
BRANCH   1   3
ATOM      3  C   UNL     1      -2.331  -0.552  -0.598  1.00  0.00     0.241 CG0
ATOM      4  G   UNL     1      -2.406  -0.480   1.051  1.00  0.00     0.000 G0
BRANCH   3   5
ATOM      5  C   UNL     1      -3.022  -2.046  -0.654  1.00  0.00     0.076 C 
ATOM      6  O   UNL     1      -2.615  -2.817   0.108  1.00  0.00    -0.547 OA
ATOM      7  O   UNL     1      -3.245  -2.303  -2.014  1.00  0.00    -0.547 OA
ENDBRANCH   3   5
ENDBRANCH   1   3
BRANCH   2   8
ATOM      8  C   UNL     1       1.456  -0.871  -0.893  1.00  0.00     0.000 A 
ATOM      9  C   UNL     1       1.681  -2.117  -0.317  1.00  0.00     0.010 A 
ATOM     10  C   UNL     1       2.568  -0.070  -1.027  1.00  0.00     0.010 A 
ATOM     11  C   UNL     1       2.871  -2.428   0.328  1.00  0.00     0.001 A 
ATOM     12  C   UNL     1       3.843  -0.590  -0.818  1.00  0.00     0.001 A 
ATOM     13  C   UNL     1       3.925  -1.531   0.202  1.00  0.00     0.000 A 
ENDBRANCH   2   8
BRANCH   2  14
ATOM     14  C   UNL     1       0.229   0.888   0.201  1.00  0.00     0.025 A 
ATOM     15  C   UNL     1       1.204   1.729  -0.326  1.00  0.00     0.033 A 
ATOM     16  C   UNL     1      -0.524   1.238   1.317  1.00  0.00     0.050 A 
ATOM     17  C   UNL     1       1.060   3.084  -0.070  1.00  0.00     0.041 A 
ATOM     18  C   UNL     1      -0.255   2.480   1.882  1.00  0.00     0.028 A 
ATOM     19  Cl  UNL     1       1.201   4.310  -1.329  1.00  0.00    -0.084 Cl
ATOM     20  C   UNL     1       0.562   3.375   1.194  1.00  0.00     0.023 A 
BRANCH  16  21
ATOM     21  N   UNL     1      -1.828   0.721   1.605  1.00  0.00    -0.323 N 
ATOM     22  C   UNL     1      -2.406  -0.480   1.051  1.00  0.00     0.255 CG0
ATOM     23  H   UNL     1      -2.381   1.232   2.239  1.00  0.00     0.170 HD
ATOM     24  O   UNL     1      -3.638  -0.527   1.366  1.00  0.00    -0.272 OA
ATOM     25  G   UNL     1      -2.331  -0.552  -0.598  1.00  0.00     0.000 G0
ENDBRANCH  16  21
ENDBRANCH   2  14
TORSDOF 2
