REMARK SMILES CCOC(=O)[C@H](CCc1ccccc1)[NH2+][C@@H](C)C(=O)N1[C@H](C(=O)[O-])C[C@H]2CCCC[C@@H]21
REMARK SMILES IDX 15 1 6 4 4 5 5 6 3 7 2 8 1 9 7 10 8 11 9 12 10 13 14 14
REMARK SMILES IDX 11 15 13 16 12 17 16 18 17 19 18 20 19 21 20 22 21 23 31 24
REMARK SMILES IDX 25 25 26 26 30 27 27 28 29 29 28 30 22 31 23 32 24 33
REMARK H PARENT 15 2 15 3
REMARK Flexibility Score: inf
ROOT
ATOM      1  N   UNL     1       0.018   0.659   1.589  1.00  0.00    -0.325 N 
ATOM      2  H   UNL     1      -0.649   0.866   2.333  1.00  0.00     0.347 HD
ATOM      3  H   UNL     1       0.655   1.455   1.576  1.00  0.00     0.347 HD
ENDROOT
BRANCH   1   4
ATOM      4  C   UNL     1      -0.717   0.413   0.212  1.00  0.00     0.294 C 
BRANCH   4   5
ATOM      5  C   UNL     1      -0.772   2.003  -0.122  1.00  0.00     0.364 C 
ATOM      6  O   UNL     1      -1.086   2.781   0.776  1.00  0.00    -0.245 OA
BRANCH   5   7
ATOM      7  O   UNL     1      -1.411   2.196  -1.351  1.00  0.00    -0.462 OA
BRANCH   7   8
ATOM      8  C   UNL     1      -2.013   3.471  -1.604  1.00  0.00     0.229 C 
ATOM      9  C   UNL     1      -2.188   3.841  -0.991  1.00  0.00     0.049 C 
ENDBRANCH   7   8
ENDBRANCH   5   7
ENDBRANCH   4   5
BRANCH   4  10
ATOM     10  C   UNL     1      -2.206   0.453   0.945  1.00  0.00     0.082 C 
BRANCH  10  11
ATOM     11  C   UNL     1      -3.055   0.269  -0.304  1.00  0.00     0.042 C 
BRANCH  11  12
ATOM     12  C   UNL     1      -4.341  -0.382  -0.024  1.00  0.00    -0.048 A 
ATOM     13  C   UNL     1      -5.461   0.402   0.194  1.00  0.00     0.004 A 
ATOM     14  C   UNL     1      -4.593  -1.669  -0.487  1.00  0.00     0.004 A 
ATOM     15  C   UNL     1      -6.674  -0.199   0.470  1.00  0.00     0.000 A 
ATOM     16  C   UNL     1      -5.878  -2.136  -0.627  1.00  0.00     0.000 A 
ATOM     17  C   UNL     1      -6.885  -1.504   0.052  1.00  0.00     0.000 A 
ENDBRANCH  11  12
ENDBRANCH  10  11
ENDBRANCH   4  10
ENDBRANCH   1   4
BRANCH   1  18
ATOM     18  C   UNL     1       0.741  -0.728   1.837  1.00  0.00     0.270 C 
ATOM     19  C   UNL     1      -0.602  -1.620   1.463  1.00  0.00     0.086 C 
BRANCH  18  20
ATOM     20  C   UNL     1       1.331  -0.801   0.324  1.00  0.00     0.281 C 
ATOM     21  O   UNL     1       1.375  -2.038   0.012  1.00  0.00    -0.268 OA
BRANCH  20  22
ATOM     22  N   UNL     1       2.582  -0.247   0.217  1.00  0.00    -0.326 N 
ATOM     23  C   UNL     1       3.503  -0.157  -1.029  1.00  0.00     0.132 C 
ATOM     24  C   UNL     1       3.366   0.144   1.498  1.00  0.00     0.089 C 
ATOM     25  C   UNL     1       4.838  -0.836  -0.326  1.00  0.00     0.037 C 
ATOM     26  C   UNL     1       4.977   0.285   0.816  1.00  0.00     0.014 C 
ATOM     27  C   UNL     1       3.707  -1.357   2.002  1.00  0.00     0.025 C 
ATOM     28  C   UNL     1       4.429   1.502  -0.048  1.00  0.00     0.006 C 
ATOM     29  C   UNL     1       4.016  -0.666   1.250  1.00  0.00     0.002 C 
ATOM     30  C   UNL     1       4.012   0.871   0.900  1.00  0.00     0.000 C 
BRANCH  23  31
ATOM     31  C   UNL     1       3.007  -1.559  -1.694  1.00  0.00     0.064 C 
ATOM     32  O   UNL     1       3.903  -2.340  -2.095  1.00  0.00    -0.548 OA
ATOM     33  O   UNL     1       2.076  -1.053  -2.620  1.00  0.00    -0.548 OA
ENDBRANCH  23  31
ENDBRANCH  20  22
ENDBRANCH  18  20
ENDBRANCH   1  18
TORSDOF 11
