REMARK SMILES [NH3+][C@@H](Cc1ccc(O)cc1)C(=O)[O-]
REMARK SMILES IDX 3 1 2 2 1 3 11 7 12 8 13 9 4 10 5 11 10 12 6 13 9 14 7 15
REMARK SMILES IDX 8 16
REMARK H PARENT 1 4 1 5 1 6 8 17
REMARK Flexibility Score: inf
ROOT
ATOM      1  C   UNL     1      -0.797  -0.046   0.652  1.00  0.00     0.107 C 
ENDROOT
BRANCH   1   2
ATOM      2  C   UNL     1      -1.825   1.238   0.332  1.00  0.00     0.232 C 
BRANCH   2   3
ATOM      3  N   UNL     1      -1.986   1.539   1.899  1.00  0.00    -0.350 N 
ATOM      4  H   UNL     1      -1.237   2.159   2.206  1.00  0.00     0.345 HD
ATOM      5  H   UNL     1      -1.938   0.663   2.420  1.00  0.00     0.345 HD
ATOM      6  H   UNL     1      -2.888   1.986   2.068  1.00  0.00     0.345 HD
ENDBRANCH   2   3
BRANCH   2   7
ATOM      7  C   UNL     1      -3.160   0.278   0.330  1.00  0.00     0.099 C 
ATOM      8  O   UNL     1      -4.173   0.986   0.021  1.00  0.00    -0.544 OA
ATOM      9  O   UNL     1      -3.013  -0.819  -0.535  1.00  0.00    -0.544 OA
ENDBRANCH   2   7
ENDBRANCH   1   2
BRANCH   1  10
ATOM     10  C   UNL     1       0.393   0.446  -0.123  1.00  0.00    -0.041 A 
ATOM     11  C   UNL     1       0.993  -0.305  -1.123  1.00  0.00     0.008 A 
ATOM     12  C   UNL     1       1.128   1.496   0.391  1.00  0.00     0.008 A 
ATOM     13  C   UNL     1       2.341  -0.297  -1.300  1.00  0.00     0.046 A 
ATOM     14  C   UNL     1       2.508   1.493   0.221  1.00  0.00     0.046 A 
ATOM     15  C   UNL     1       3.146   0.552  -0.569  1.00  0.00     0.115 A 
BRANCH  15  16
ATOM     16  O   UNL     1       4.446   0.192  -0.196  1.00  0.00    -0.508 OA
ATOM     17  H   UNL     1       4.920  -0.442  -0.698  1.00  0.00     0.293 HD
ENDBRANCH  15  16
ENDBRANCH   1  10
TORSDOF 5
