REMARK SMILES C[C@H]1C[N@@H+](C[C@H](Cc2ccccc2)C(=O)NCC(=O)[O-])CC[C@@]1(C)c1cccc(O)c1
REMARK SMILES IDX 5 1 4 2 1 3 2 4 3 5 23 6 22 7 24 8 21 9 25 11 26 12 31 13
REMARK SMILES IDX 27 14 29 15 28 16 30 17 6 19 7 20 8 21 9 22 13 23 10 24
REMARK SMILES IDX 12 25 11 26 14 27 15 28 16 29 17 31 18 32 19 33 20 34
REMARK H PARENT 4 10 30 18 16 30
REMARK Flexibility Score: inf
ROOT
ATOM      1  C   UNL     1      -0.547   0.352   0.107  1.00  0.00     0.276 C 
ENDROOT
BRANCH   1   2
ATOM      2  N   UNL     1       0.220  -0.768   0.416  1.00  0.00    -0.334 N 
ATOM      3  C   UNL     1       1.979   1.092   0.332  1.00  0.00     0.014 C 
ATOM      4  C   UNL     1       2.550  -0.177   1.182  1.00  0.00     0.052 C 
ATOM      5  C   UNL     1       1.089  -0.831   1.464  1.00  0.00     0.266 C 
ATOM      6  C   UNL     1       2.879  -1.058  -0.146  1.00  0.00     0.006 C 
ATOM      7  C   UNL     1       1.851  -0.886  -1.175  1.00  0.00     0.073 C 
ATOM      8  C   UNL     1       3.091  -2.430   0.380  1.00  0.00     0.017 C 
ATOM      9  C   UNL     1       0.616  -1.574  -0.708  1.00  0.00     0.263 C 
ATOM     10  H   UNL     1      -0.558  -1.195   0.920  1.00  0.00     0.348 HD
BRANCH   6  11
ATOM     11  C   UNL     1       4.123  -0.422  -0.691  1.00  0.00    -0.038 A 
ATOM     12  C   UNL     1       4.002   0.572  -1.658  1.00  0.00     0.004 A 
ATOM     13  C   UNL     1       5.257  -0.333   0.085  1.00  0.00     0.050 A 
ATOM     14  C   UNL     1       4.800   1.683  -1.702  1.00  0.00     0.004 A 
ATOM     15  C   UNL     1       6.207   0.668  -0.078  1.00  0.00     0.115 A 
ATOM     16  C   UNL     1       5.787   1.814  -0.744  1.00  0.00     0.046 A 
BRANCH  15  17
ATOM     17  O   UNL     1       7.017   0.901   1.039  1.00  0.00    -0.508 OA
ATOM     18  H   UNL     1       7.682   1.561   1.007  1.00  0.00     0.293 HD
ENDBRANCH  15  17
ENDBRANCH   6  11
ENDBRANCH   1   2
BRANCH   1  19
ATOM     19  C   UNL     1      -2.132  -0.026   0.137  1.00  0.00     0.138 C 
BRANCH  19  20
ATOM     20  C   UNL     1      -2.007  -1.046  -1.134  1.00  0.00     0.055 C 
BRANCH  20  21
ATOM     21  C   UNL     1      -2.975  -2.132  -0.865  1.00  0.00    -0.047 A 
ATOM     22  C   UNL     1      -4.329  -1.962  -1.130  1.00  0.00     0.004 A 
ATOM     23  C   UNL     1      -2.620  -3.425  -0.506  1.00  0.00     0.004 A 
ATOM     24  C   UNL     1      -5.198  -2.725  -0.359  1.00  0.00     0.000 A 
ATOM     25  C   UNL     1      -3.404  -4.140   0.361  1.00  0.00     0.000 A 
ATOM     26  C   UNL     1      -4.728  -3.740   0.466  1.00  0.00     0.000 A 
ENDBRANCH  20  21
ENDBRANCH  19  20
BRANCH  19  27
ATOM     27  C   UNL     1      -2.519   1.226  -0.793  1.00  0.00     0.229 C 
ATOM     28  O   UNL     1      -3.738   1.227  -1.147  1.00  0.00    -0.275 OA
ATOM     29  N   UNL     1      -2.070   2.488  -0.282  1.00  0.00    -0.350 N 
ATOM     30  H   UNL     1      -1.395   2.474   0.435  1.00  0.00     0.163 HD
BRANCH  29  31
ATOM     31  C   UNL     1      -2.525   3.764  -0.733  1.00  0.00     0.168 C 
BRANCH  31  32
ATOM     32  C   UNL     1      -3.822   4.066  -0.067  1.00  0.00     0.061 C 
ATOM     33  O   UNL     1      -3.910   3.806   1.169  1.00  0.00    -0.548 OA
ATOM     34  O   UNL     1      -4.941   4.015  -0.904  1.00  0.00    -0.548 OA
ENDBRANCH  31  32
ENDBRANCH  29  31
ENDBRANCH  19  27
ENDBRANCH   1  19
TORSDOF 9
