REMARK SMILES NC(=O)[C@@H]1CC[C@@H]2CN1C(=O)N2OS(=O)(=O)[O-]
REMARK SMILES IDX 4 1 5 2 6 3 7 4 8 5 9 6 10 7 11 8 12 9 2 10 1 11 3 14 13 15
REMARK SMILES IDX 14 16 15 17 16 18 17 19
REMARK H PARENT 1 12 1 13
REMARK Flexibility Score: inf
ROOT
ATOM      1  C   UNL     1      -2.305  -0.960  -0.624  1.00  0.00     0.176 C 
ATOM      2  C   UNL     1      -2.197  -1.524   0.919  1.00  0.00     0.038 C 
ATOM      3  C   UNL     1      -0.856  -1.853   1.587  1.00  0.00     0.032 C 
ATOM      4  C   UNL     1      -0.607  -0.556   0.710  1.00  0.00     0.138 C 
ATOM      5  C   UNL     1      -0.289  -1.707  -0.524  1.00  0.00     0.150 C 
ATOM      6  N   UNL     1      -0.850  -0.526  -1.016  1.00  0.00    -0.309 N 
ATOM      7  C   UNL     1       0.267   0.296  -0.653  1.00  0.00     0.346 C 
ATOM      8  O   UNL     1      -0.005   1.503  -0.957  1.00  0.00    -0.246 OA
ATOM      9  N   UNL     1       0.906  -0.259   0.573  1.00  0.00    -0.181 N 
ENDROOT
BRANCH   1  10
ATOM     10  C   UNL     1      -2.847   0.513  -0.183  1.00  0.00     0.240 C 
ATOM     11  N   UNL     1      -3.461   0.514   0.484  1.00  0.00    -0.368 N 
ATOM     12  H   UNL     1      -3.836   1.366   0.806  1.00  0.00     0.159 HD
ATOM     13  H   UNL     1      -3.752  -0.336   0.888  1.00  0.00     0.159 HD
ATOM     14  O   UNL     1      -2.909   1.165  -1.274  1.00  0.00    -0.273 OA
ENDBRANCH   1  10
BRANCH   9  15
ATOM     15  O   UNL     1       1.629   0.558   1.339  1.00  0.00    -0.153 OA
BRANCH  15  16
ATOM     16  S   UNL     1       3.077   0.714   0.466  1.00  0.00     0.239 S 
ATOM     17  O   UNL     1       3.563   2.105   0.498  1.00  0.00    -0.211 OA
ATOM     18  O   UNL     1       4.047  -0.310   0.959  1.00  0.00    -0.211 OA
ATOM     19  O   UNL     1       2.838   0.327  -1.167  1.00  0.00    -0.724 OA
ENDBRANCH  15  16
ENDBRANCH   9  15
TORSDOF 3
