REMARK SMILES Nc1nc(/C(=C/CC(=O)[O-])C(=O)N[C@@H]2C(=O)N3C(C(=O)[O-])=CCS[C@H]23)cs1
REMARK SMILES IDX 11 1 12 2 13 3 5 5 6 6 4 7 2 8 3 9 27 10 26 11 1 12 7 15
REMARK SMILES IDX 8 16 9 17 10 18 14 19 15 20 25 21 16 22 17 23 24 24 18 25
REMARK SMILES IDX 23 26 22 27 19 28 20 29 21 30
REMARK H PARENT 13 4 1 13 1 14
REMARK Flexibility Score: inf
ROOT
ATOM      1  C   UNL     1      -0.695   0.128   0.461  1.00  0.00     0.253 C 
ATOM      2  O   UNL     1      -0.523   1.154   1.190  1.00  0.00    -0.269 OA
ATOM      3  N   UNL     1       0.310  -0.886   0.409  1.00  0.00    -0.338 N 
ATOM      4  H   UNL     1       0.561  -1.433  -0.370  1.00  0.00     0.164 HD
ENDROOT
BRANCH   1   5
ATOM      5  C   UNL     1      -1.766   0.251  -0.539  1.00  0.00     0.062 C 
ATOM      6  C   UNL     1      -2.484  -0.861  -0.702  1.00  0.00    -0.005 C 
BRANCH   5   7
ATOM      7  C   UNL     1      -2.344   1.579  -0.837  1.00  0.00     0.089 A 
ATOM      8  C   UNL     1      -3.768   3.090  -0.012  1.00  0.00     0.180 A 
ATOM      9  N   UNL     1      -3.633   1.950  -0.727  1.00  0.00    -0.220 NA
ATOM     10  S   UNL     1      -2.492   4.001  -0.719  1.00  0.00    -0.105 S 
ATOM     11  C   UNL     1      -1.561   2.654  -1.253  1.00  0.00     0.097 A 
BRANCH   8  12
ATOM     12  N   UNL     1      -4.921   3.625   0.603  1.00  0.00    -0.375 N 
ATOM     13  H   UNL     1      -5.601   3.023   0.982  1.00  0.00     0.159 HD
ATOM     14  H   UNL     1      -5.045   4.601   0.651  1.00  0.00     0.159 HD
ENDBRANCH   8  12
ENDBRANCH   5   7
BRANCH   6  15
ATOM     15  C   UNL     1      -2.394  -2.018   0.239  1.00  0.00     0.081 C 
BRANCH  15  16
ATOM     16  C   UNL     1      -3.297  -3.091  -0.269  1.00  0.00     0.045 C 
ATOM     17  O   UNL     1      -4.543  -2.969  -0.068  1.00  0.00    -0.550 OA
ATOM     18  O   UNL     1      -2.760  -4.382  -0.318  1.00  0.00    -0.550 OA
ENDBRANCH  15  16
ENDBRANCH   6  15
ENDBRANCH   1   5
BRANCH   3  19
ATOM     19  C   UNL     1       0.948  -0.951   1.878  1.00  0.00     0.205 C 
ATOM     20  C   UNL     1       1.798   0.410   1.595  1.00  0.00     0.253 C 
ATOM     21  C   UNL     1       2.417  -1.680   1.434  1.00  0.00     0.180 C 
ATOM     22  O   UNL     1       2.034   1.247   2.505  1.00  0.00    -0.272 OA
ATOM     23  N   UNL     1       2.556  -0.379   0.654  1.00  0.00    -0.294 N 
ATOM     24  S   UNL     1       1.886  -2.821   0.001  1.00  0.00    -0.130 SA
ATOM     25  C   UNL     1       3.796  -0.328  -0.062  1.00  0.00     0.065 C 
ATOM     26  C   UNL     1       3.067  -2.312  -1.293  1.00  0.00     0.101 C 
ATOM     27  C   UNL     1       4.138  -1.446  -0.704  1.00  0.00     0.012 C 
BRANCH  25  28
ATOM     28  C   UNL     1       4.525   0.929  -0.274  1.00  0.00     0.088 C 
ATOM     29  O   UNL     1       4.406   1.592  -1.349  1.00  0.00    -0.543 OA
ATOM     30  O   UNL     1       5.299   1.513   0.727  1.00  0.00    -0.543 OA
ENDBRANCH  25  28
ENDBRANCH   3  19
TORSDOF 7
