REMARK SMILES CO/N=C(\C(=O)N[C@@H]1C(=O)N2C(C(=O)[O-])=C(C[N+]3(C)CCCC3)CS[C@H]12)c1csc(N)n1
REMARK SMILES IDX 5 1 6 2 7 3 4 5 3 6 2 7 1 8 27 9 28 10 32 11 29 12 30 13
REMARK SMILES IDX 31 14 8 17 9 18 26 19 10 20 11 21 25 22 12 23 24 24 16 25
REMARK SMILES IDX 13 26 14 27 15 28 17 29 18 30 19 31 20 32 23 33 21 34 22 35
REMARK H PARENT 7 4 31 15 31 16
REMARK Flexibility Score: inf
ROOT
ATOM      1  C   UNL     1      -2.577   0.320   0.157  1.00  0.00     0.276 C 
ATOM      2  O   UNL     1      -2.683   1.571  -0.035  1.00  0.00    -0.267 OA
ATOM      3  N   UNL     1      -1.290  -0.208  -0.059  1.00  0.00    -0.336 N 
ATOM      4  H   UNL     1      -0.700  -0.604   0.623  1.00  0.00     0.164 HD
ENDROOT
BRANCH   1   5
ATOM      5  C   UNL     1      -3.700  -0.328   0.792  1.00  0.00     0.193 C 
ATOM      6  N   UNL     1      -3.590  -1.545   1.226  1.00  0.00    -0.079 NA
BRANCH   6   7
ATOM      7  O   UNL     1      -2.738  -2.422   0.584  1.00  0.00    -0.398 OA
ATOM      8  C   UNL     1      -3.174  -3.239  -0.197  1.00  0.00     0.315 C 
ENDBRANCH   6   7
BRANCH   5   9
ATOM      9  C   UNL     1      -5.029   0.304   0.745  1.00  0.00     0.111 A 
ATOM     10  C   UNL     1      -5.930   0.136   1.794  1.00  0.00     0.099 A 
ATOM     11  N   UNL     1      -5.337   1.427   0.052  1.00  0.00    -0.218 NA
ATOM     12  S   UNL     1      -7.360   0.753   1.059  1.00  0.00    -0.105 S 
ATOM     13  C   UNL     1      -6.631   1.403  -0.352  1.00  0.00     0.180 A 
BRANCH  13  14
ATOM     14  N   UNL     1      -7.162   2.387  -1.252  1.00  0.00    -0.375 N 
ATOM     15  H   UNL     1      -8.107   2.343  -1.528  1.00  0.00     0.159 HD
ATOM     16  H   UNL     1      -6.583   3.106  -1.594  1.00  0.00     0.159 HD
ENDBRANCH  13  14
ENDBRANCH   5   9
ENDBRANCH   1   5
BRANCH   3  17
ATOM     17  C   UNL     1      -0.962  -0.045  -1.627  1.00  0.00     0.206 C 
ATOM     18  C   UNL     1      -0.070  -1.415  -1.627  1.00  0.00     0.253 C 
ATOM     19  C   UNL     1       0.571   0.679  -1.449  1.00  0.00     0.181 C 
ATOM     20  O   UNL     1      -0.176  -2.374  -2.411  1.00  0.00    -0.272 OA
ATOM     21  N   UNL     1       0.917  -0.692  -0.878  1.00  0.00    -0.293 N 
ATOM     22  S   UNL     1       0.426   1.585   0.224  1.00  0.00    -0.129 SA
ATOM     23  C   UNL     1       2.307  -0.721  -0.533  1.00  0.00     0.073 C 
ATOM     24  C   UNL     1       2.021   1.109   0.972  1.00  0.00     0.111 C 
ATOM     25  C   UNL     1       2.870   0.353   0.026  1.00  0.00     0.020 C 
BRANCH  23  26
ATOM     26  C   UNL     1       3.145  -1.907  -0.750  1.00  0.00     0.088 C 
ATOM     27  O   UNL     1       2.836  -2.921  -0.052  1.00  0.00    -0.543 OA
ATOM     28  O   UNL     1       4.432  -1.830  -1.231  1.00  0.00    -0.543 OA
ENDBRANCH  23  26
BRANCH  25  29
ATOM     29  C   UNL     1       4.248   0.703  -0.347  1.00  0.00     0.299 C 
BRANCH  29  30
ATOM     30  N   UNL     1       4.978   1.443   0.631  1.00  0.00    -0.322 N 
ATOM     31  C   UNL     1       4.325   2.628   1.109  1.00  0.00     0.334 C 
ATOM     32  C   UNL     1       6.247   1.842   0.028  1.00  0.00     0.264 C 
ATOM     33  C   UNL     1       5.401   0.570   1.717  1.00  0.00     0.264 C 
ATOM     34  C   UNL     1       7.027   0.554  -0.059  1.00  0.00     0.067 C 
ATOM     35  C   UNL     1       6.660  -0.119   1.245  1.00  0.00     0.067 C 
ENDBRANCH  29  30
ENDBRANCH  25  29
ENDBRANCH   3  17
TORSDOF 8
