REMARK SMILES CC(C)(Oc1ccc(C(=O)c2ccc(Cl)cc2)cc1)C(=O)[O-]
REMARK SMILES IDX 5 1 6 2 7 3 8 4 18 5 19 6 4 7 2 8 1 9 3 10 20 11 21 12 22 13
REMARK SMILES IDX 9 14 10 15 11 16 12 17 17 18 13 19 16 20 14 21 15 22
REMARK H PARENT
REMARK Flexibility Score: inf
ROOT
ATOM      1  C   UNL     1      -1.875  -0.094  -0.458  1.00  0.00     0.120 A 
ATOM      2  C   UNL     1      -1.730  -1.448  -0.228  1.00  0.00     0.047 A 
ATOM      3  C   UNL     1      -0.573  -1.947   0.356  1.00  0.00     0.016 A 
ATOM      4  C   UNL     1       0.552  -1.135   0.402  1.00  0.00     0.023 A 
ATOM      5  C   UNL     1       0.297   0.230   0.358  1.00  0.00     0.016 A 
ATOM      6  C   UNL     1      -0.947   0.751   0.123  1.00  0.00     0.047 A 
ENDROOT
BRANCH   1   7
ATOM      7  O   UNL     1      -3.122   0.377  -0.804  1.00  0.00    -0.482 OA
BRANCH   7   8
ATOM      8  C   UNL     1      -4.290   0.187  -0.042  1.00  0.00     0.143 C 
ATOM      9  C   UNL     1      -5.409  -0.127  -1.020  1.00  0.00     0.063 C 
ATOM     10  C   UNL     1      -4.182  -1.011   0.885  1.00  0.00     0.063 C 
BRANCH   8  11
ATOM     11  C   UNL     1      -4.573   1.411   0.747  1.00  0.00     0.084 C 
ATOM     12  O   UNL     1      -4.457   1.368   2.008  1.00  0.00    -0.546 OA
ATOM     13  O   UNL     1      -4.191   2.619   0.154  1.00  0.00    -0.546 OA
ENDBRANCH   8  11
ENDBRANCH   7   8
ENDBRANCH   1   7
BRANCH   4  14
ATOM     14  C   UNL     1       1.905  -1.667   0.205  1.00  0.00     0.193 C 
ATOM     15  O   UNL     1       2.139  -2.668  -0.532  1.00  0.00    -0.289 OA
BRANCH  14  16
ATOM     16  C   UNL     1       2.999  -0.695   0.299  1.00  0.00     0.023 A 
ATOM     17  C   UNL     1       4.032  -0.990   1.146  1.00  0.00     0.014 A 
ATOM     18  C   UNL     1       3.280   0.112  -0.794  1.00  0.00     0.014 A 
ATOM     19  C   UNL     1       4.992  -0.011   1.335  1.00  0.00     0.021 A 
ATOM     20  C   UNL     1       4.199   1.120  -0.602  1.00  0.00     0.021 A 
ATOM     21  C   UNL     1       4.940   1.145   0.567  1.00  0.00     0.041 A 
ATOM     22  Cl  UNL     1       6.016   2.473   0.964  1.00  0.00    -0.084 Cl
ENDBRANCH  14  16
ENDBRANCH   4  14
TORSDOF 5
