REMARK SMILES CN(Cc1cnc2nc(N)nc(N)c2n1)c1ccc(C(=O)N[C@@H](CCC(=O)[O-])C(=O)[O-])cc1
REMARK SMILES IDX 16 1 17 2 18 3 19 4 32 5 33 6 2 7 1 8 3 9 4 10 5 11 15 12
REMARK SMILES IDX 6 13 14 14 7 15 12 16 8 17 11 18 9 19 13 20 10 23 20 26
REMARK SMILES IDX 21 27 22 28 23 30 24 31 25 32 26 33 27 34 28 35 29 36 30 37
REMARK SMILES IDX 31 38
REMARK H PARENT 13 21 13 22 10 24 10 25 22 29
REMARK Flexibility Score: inf
ROOT
ATOM      1  C   UNL     1      -0.044   0.570   1.743  1.00  0.00     0.037 A 
ATOM      2  C   UNL     1       0.451   1.814   1.365  1.00  0.00     0.027 A 
ATOM      3  C   UNL     1       1.824   2.024   1.242  1.00  0.00     0.016 A 
ATOM      4  C   UNL     1       2.735   0.985   1.426  1.00  0.00     0.039 A 
ATOM      5  C   UNL     1       2.241   0.013   2.296  1.00  0.00     0.016 A 
ATOM      6  C   UNL     1       0.873  -0.148   2.504  1.00  0.00     0.027 A 
ENDROOT
BRANCH   1   7
ATOM      7  N   UNL     1      -1.112  -0.070   1.032  1.00  0.00    -0.369 N 
ATOM      8  C   UNL     1      -1.448   0.162  -0.105  1.00  0.00     0.144 C 
BRANCH   7   9
ATOM      9  C   UNL     1      -1.768  -1.141   1.778  1.00  0.00     0.174 C 
BRANCH   9  10
ATOM     10  C   UNL     1      -3.096  -1.304   1.103  1.00  0.00     0.079 A 
ATOM     11  C   UNL     1      -3.170  -2.108  -0.028  1.00  0.00     0.139 A 
ATOM     12  N   UNL     1      -3.828  -0.163   1.053  1.00  0.00    -0.242 NA
ATOM     13  N   UNL     1      -4.318  -2.072  -0.749  1.00  0.00    -0.233 NA
ATOM     14  C   UNL     1      -5.027  -0.234   0.472  1.00  0.00     0.150 A 
ATOM     15  C   UNL     1      -5.229  -1.092  -0.596  1.00  0.00     0.185 A 
ATOM     16  C   UNL     1      -5.927   0.794   0.725  1.00  0.00     0.157 A 
ATOM     17  N   UNL     1      -6.194  -0.813  -1.472  1.00  0.00    -0.191 NA
ATOM     18  N   UNL     1      -7.023   0.822  -0.072  1.00  0.00    -0.194 NA
ATOM     19  C   UNL     1      -7.003   0.261  -1.306  1.00  0.00     0.224 A 
BRANCH  16  20
ATOM     20  N   UNL     1      -5.943   1.343   2.049  1.00  0.00    -0.382 N 
ATOM     21  H   UNL     1      -6.565   2.072   2.272  1.00  0.00     0.158 HD
ATOM     22  H   UNL     1      -5.332   0.990   2.735  1.00  0.00     0.158 HD
ENDBRANCH  16  20
BRANCH  19  23
ATOM     23  N   UNL     1      -7.616   0.929  -2.416  1.00  0.00    -0.368 N 
ATOM     24  H   UNL     1      -7.598   0.516  -3.309  1.00  0.00     0.159 HD
ATOM     25  H   UNL     1      -8.055   1.800  -2.284  1.00  0.00     0.159 HD
ENDBRANCH  19  23
ENDBRANCH   9  10
ENDBRANCH   7   9
ENDBRANCH   1   7
BRANCH   4  26
ATOM     26  C   UNL     1       3.694   0.621   0.363  1.00  0.00     0.251 C 
ATOM     27  O   UNL     1       4.272  -0.482   0.424  1.00  0.00    -0.269 OA
ATOM     28  N   UNL     1       3.944   1.438  -0.723  1.00  0.00    -0.344 N 
ATOM     29  H   UNL     1       3.836   2.412  -0.628  1.00  0.00     0.164 HD
BRANCH  28  30
ATOM     30  C   UNL     1       4.396   0.846  -2.104  1.00  0.00     0.128 C 
BRANCH  30  31
ATOM     31  C   UNL     1       5.247  -0.394  -1.440  1.00  0.00     0.037 C 
BRANCH  31  32
ATOM     32  C   UNL     1       6.617  -0.151  -2.023  1.00  0.00     0.055 C 
BRANCH  32  33
ATOM     33  C   UNL     1       7.620  -0.653  -1.046  1.00  0.00     0.041 C 
ATOM     34  O   UNL     1       8.226  -1.717  -1.371  1.00  0.00    -0.550 OA
ATOM     35  O   UNL     1       8.393   0.315  -0.402  1.00  0.00    -0.550 OA
ENDBRANCH  32  33
ENDBRANCH  31  32
ENDBRANCH  30  31
BRANCH  30  36
ATOM     36  C   UNL     1       3.067  -0.053  -2.283  1.00  0.00     0.064 C 
ATOM     37  O   UNL     1       3.217  -1.095  -2.956  1.00  0.00    -0.548 OA
ATOM     38  O   UNL     1       1.931   0.752  -2.401  1.00  0.00    -0.548 OA
ENDBRANCH  30  36
ENDBRANCH  28  30
ENDBRANCH   4  26
TORSDOF 11
