REMARK SMILES CCOC(=O)[C@H](CCc1ccccc1)[NH2+][C@H]1CCc2ccccc2N(CC(=O)[O-])C1=O
REMARK SMILES IDX 16 1 15 3 6 6 4 7 5 8 3 9 2 10 1 11 7 12 8 13 9 14 10 15
REMARK SMILES IDX 14 16 11 17 13 18 12 19 30 20 31 21 25 22 24 23 19 24 23 25
REMARK SMILES IDX 20 26 22 27 21 28 18 29 17 30 26 32 27 33 28 34 29 35
REMARK H PARENT 15 4 15 5
REMARK Flexibility Score: 90.00
ROOT
ATOM      1  C   UNL     1      -0.675  -0.443  -1.351  1.00  0.00     0.274 CG0
ATOM      2  G   UNL     1      -0.276   0.479  -0.005  1.00  0.00     0.000 G0
ENDROOT
BRANCH   1   3
ATOM      3  N   UNL     1       0.230   0.446  -2.312  1.00  0.00    -0.324 N 
ATOM      4  H   UNL     1      -0.173   0.505  -3.248  1.00  0.00     0.347 HD
ATOM      5  H   UNL     1       0.326   1.413  -2.002  1.00  0.00     0.347 HD
BRANCH   3   6
ATOM      6  C   UNL     1       1.612  -0.358  -2.328  1.00  0.00     0.294 C 
BRANCH   6   7
ATOM      7  C   UNL     1       1.124  -1.651  -1.427  1.00  0.00     0.364 C 
ATOM      8  O   UNL     1       0.569  -2.526  -2.164  1.00  0.00    -0.245 OA
BRANCH   7   9
ATOM      9  O   UNL     1       2.153  -2.159  -0.648  1.00  0.00    -0.462 OA
BRANCH   9  10
ATOM     10  C   UNL     1       2.307  -3.484  -0.241  1.00  0.00     0.229 C 
ATOM     11  C   UNL     1       2.090  -3.500   1.202  1.00  0.00     0.049 C 
ENDBRANCH   9  10
ENDBRANCH   7   9
ENDBRANCH   6   7
BRANCH   6  12
ATOM     12  C   UNL     1       2.151   0.469  -0.974  1.00  0.00     0.082 C 
BRANCH  12  13
ATOM     13  C   UNL     1       3.594   0.729  -1.208  1.00  0.00     0.042 C 
BRANCH  13  14
ATOM     14  C   UNL     1       4.216   0.848   0.150  1.00  0.00    -0.048 A 
ATOM     15  C   UNL     1       3.584   1.602   1.133  1.00  0.00     0.004 A 
ATOM     16  C   UNL     1       5.514   0.457   0.403  1.00  0.00     0.004 A 
ATOM     17  C   UNL     1       4.274   2.232   2.151  1.00  0.00     0.000 A 
ATOM     18  C   UNL     1       6.180   0.952   1.492  1.00  0.00     0.000 A 
ATOM     19  C   UNL     1       5.621   1.931   2.288  1.00  0.00     0.000 A 
ENDBRANCH  13  14
ENDBRANCH  12  13
ENDBRANCH   6  12
ENDBRANCH   3   6
ENDBRANCH   1   3
BRANCH   1  20
ATOM     20  C   UNL     1      -1.969   0.514  -1.656  1.00  0.00     0.285 C 
ATOM     21  O   UNL     1      -2.241   0.529  -2.858  1.00  0.00    -0.268 OA
BRANCH  20  22
ATOM     22  N   UNL     1      -3.071   0.355  -0.797  1.00  0.00    -0.301 N 
BRANCH  22  23
ATOM     23  C   UNL     1      -3.138  -0.042   0.579  1.00  0.00     0.047 A 
ATOM     24  C   UNL     1      -2.088  -0.654   1.252  1.00  0.00    -0.024 A 
ATOM     25  C   UNL     1      -4.437  -0.360   0.936  1.00  0.00     0.026 A 
ATOM     26  C   UNL     1      -2.296  -1.697   2.147  1.00  0.00     0.006 A 
ATOM     27  C   UNL     1      -4.651  -1.394   1.845  1.00  0.00     0.002 A 
ATOM     28  C   UNL     1      -3.589  -2.187   2.269  1.00  0.00     0.000 A 
BRANCH  24  29
ATOM     29  C   UNL     1      -0.611  -0.454   1.153  1.00  0.00     0.044 C 
BRANCH  29  30
ATOM     30  C   UNL     1      -0.276   0.479  -0.005  1.00  0.00     0.080 CG0
ATOM     31  G   UNL     1      -0.675  -0.443  -1.351  1.00  0.00     0.000 G0
ENDBRANCH  29  30
ENDBRANCH  24  29
ENDBRANCH  22  23
BRANCH  22  32
ATOM     32  C   UNL     1      -4.192   1.219  -1.151  1.00  0.00     0.178 C 
BRANCH  32  33
ATOM     33  C   UNL     1      -4.052   2.379  -0.215  1.00  0.00     0.061 C 
ATOM     34  O   UNL     1      -5.062   2.664   0.483  1.00  0.00    -0.548 OA
ATOM     35  O   UNL     1      -2.869   3.102  -0.146  1.00  0.00    -0.548 OA
ENDBRANCH  32  33
ENDBRANCH  22  32
ENDBRANCH  20  22
ENDBRANCH   1  20
TORSDOF 10
