REMARK SMILES Cc1onc(-c2ccccc2)c1C(=O)N[C@@H]1C(=O)N2[C@@H]1SC(C)(C)[C@@H]2C(=O)[O-]
REMARK SMILES IDX 13 1 14 2 15 3 12 5 1 6 2 7 3 8 4 9 5 10 6 11 7 12 11 13
REMARK SMILES IDX 8 14 10 15 9 16 16 17 17 18 20 19 18 20 19 21 21 22 25 23
REMARK SMILES IDX 22 24 23 25 24 26 26 27 27 28 28 29
REMARK H PARENT 15 4
REMARK Flexibility Score: inf
ROOT
ATOM      1  C   UNL     1       1.007  -0.381  -0.444  1.00  0.00     0.257 C 
ATOM      2  O   UNL     1       1.461  -0.081  -1.565  1.00  0.00    -0.269 OA
ATOM      3  N   UNL     1      -0.347  -0.009  -0.193  1.00  0.00    -0.337 N 
ATOM      4  H   UNL     1      -0.646   0.426   0.638  1.00  0.00     0.164 HD
ENDROOT
BRANCH   1   5
ATOM      5  C   UNL     1       1.895  -0.614   0.694  1.00  0.00     0.110 A 
ATOM      6  C   UNL     1       0.693  -2.398   1.986  1.00  0.00     0.092 C 
ATOM      7  C   UNL     1       1.512  -1.156   1.915  1.00  0.00     0.147 A 
ATOM      8  O   UNL     1       2.465  -0.811   2.763  1.00  0.00    -0.360 OA
ATOM      9  N   UNL     1       3.227   0.095   2.259  1.00  0.00    -0.079 NA
ATOM     10  C   UNL     1       3.017   0.172   0.923  1.00  0.00     0.126 A 
BRANCH  10  11
ATOM     11  C   UNL     1       4.052   0.424  -0.092  1.00  0.00     0.004 A 
ATOM     12  C   UNL     1       4.931   1.483   0.101  1.00  0.00     0.010 A 
ATOM     13  C   UNL     1       4.577  -0.603  -0.871  1.00  0.00     0.010 A 
ATOM     14  C   UNL     1       6.248   1.444  -0.327  1.00  0.00     0.001 A 
ATOM     15  C   UNL     1       5.949  -0.809  -0.942  1.00  0.00     0.001 A 
ATOM     16  C   UNL     1       6.819   0.197  -0.549  1.00  0.00     0.000 A 
ENDBRANCH  10  11
ENDBRANCH   1   5
BRANCH   3  17
ATOM     17  C   UNL     1      -1.329  -0.374  -1.406  1.00  0.00     0.205 C 
ATOM     18  C   UNL     1      -2.052   1.080  -1.415  1.00  0.00     0.249 C 
ATOM     19  C   UNL     1      -2.658  -0.785  -0.434  1.00  0.00     0.176 C 
ATOM     20  O   UNL     1      -1.595   2.049  -2.014  1.00  0.00    -0.272 OA
ATOM     21  N   UNL     1      -3.274   0.320  -1.277  1.00  0.00    -0.317 N 
ATOM     22  S   UNL     1      -2.542   0.499   0.979  1.00  0.00    -0.125 SA
ATOM     23  C   UNL     1      -4.732   0.449  -0.646  1.00  0.00     0.148 C 
ATOM     24  C   UNL     1      -4.190   0.987   0.839  1.00  0.00     0.038 C 
ATOM     25  C   UNL     1      -4.294   2.488   0.588  1.00  0.00     0.025 C 
ATOM     26  C   UNL     1      -5.185   0.612   1.837  1.00  0.00     0.025 C 
BRANCH  23  27
ATOM     27  C   UNL     1      -4.838  -1.131  -0.189  1.00  0.00     0.065 C 
ATOM     28  O   UNL     1      -4.842  -1.757  -1.296  1.00  0.00    -0.548 OA
ATOM     29  O   UNL     1      -5.975  -1.391   0.581  1.00  0.00    -0.548 OA
ENDBRANCH  23  27
ENDBRANCH   3  17
TORSDOF 4
