REMARK SMILES CO/N=C1\CN(c2nc3c(cc2F)c(=O)c(C(=O)[O-])cn3C2CC2)C[C@H]1C[NH3+]
REMARK SMILES IDX 3 1 4 2 5 3 6 4 25 5 26 6 2 7 1 8 27 9 28 10 7 14 8 15 12 16
REMARK SMILES IDX 9 17 11 18 13 19 10 20 21 21 14 22 20 23 15 24 16 25 22 26
REMARK SMILES IDX 23 27 24 28 17 29 18 30 19 31
REMARK H PARENT 28 11 28 12 28 13
REMARK Flexibility Score: inf
ROOT
ATOM      1  N   UNL     1      -5.560  -0.457   0.074  1.00  0.00    -0.094 NA
ATOM      2  C   UNL     1      -4.301  -0.716   0.079  1.00  0.00     0.087 C 
ATOM      3  C   UNL     1      -3.175  -0.198  -0.688  1.00  0.00     0.173 C 
ATOM      4  N   UNL     1      -2.121  -1.150  -0.464  1.00  0.00    -0.348 N 
ATOM      5  C   UNL     1      -2.571  -2.265   0.313  1.00  0.00     0.134 C 
ATOM      6  C   UNL     1      -3.652  -1.531   1.313  1.00  0.00     0.113 C 
ENDROOT
BRANCH   1   7
ATOM      7  O   UNL     1      -5.943   0.706  -0.571  1.00  0.00    -0.399 OA
ATOM      8  C   UNL     1      -6.373   1.095  -0.698  1.00  0.00     0.315 C 
ENDBRANCH   1   7
BRANCH   6   9
ATOM      9  C   UNL     1      -2.608  -0.307   1.673  1.00  0.00     0.270 C 
BRANCH   9  10
ATOM     10  N   UNL     1      -3.502   0.793   2.029  1.00  0.00    -0.357 N 
ATOM     11  H   UNL     1      -4.133   0.983   1.250  1.00  0.00     0.344 HD
ATOM     12  H   UNL     1      -2.951   1.627   2.231  1.00  0.00     0.344 HD
ATOM     13  H   UNL     1      -4.046   0.537   2.853  1.00  0.00     0.344 HD
ENDBRANCH   9  10
ENDBRANCH   6   9
BRANCH   4  14
ATOM     14  C   UNL     1      -0.753  -0.903  -0.788  1.00  0.00     0.167 A 
ATOM     15  N   UNL     1      -0.156   0.263  -0.441  1.00  0.00    -0.210 NA
ATOM     16  C   UNL     1       0.088  -1.989  -1.001  1.00  0.00     0.166 A 
ATOM     17  C   UNL     1       1.160   0.385  -0.242  1.00  0.00     0.146 A 
ATOM     18  C   UNL     1       1.442  -1.770  -1.231  1.00  0.00     0.059 A 
ATOM     19  F   UNL     1      -0.352  -3.253  -0.730  1.00  0.00    -0.203 F 
ATOM     20  C   UNL     1       2.000  -0.588  -0.760  1.00  0.00     0.069 A 
ATOM     21  N   UNL     1       1.676   1.398   0.492  1.00  0.00    -0.328 N 
ATOM     22  C   UNL     1       3.366  -0.454  -0.555  1.00  0.00     0.200 A 
ATOM     23  C   UNL     1       2.960   1.341   0.900  1.00  0.00     0.102 A 
ATOM     24  O   UNL     1       4.123  -1.111  -1.293  1.00  0.00    -0.288 OA
ATOM     25  C   UNL     1       3.870   0.450   0.365  1.00  0.00     0.062 A 
BRANCH  21  26
ATOM     26  C   UNL     1       0.893   2.617   0.565  1.00  0.00     0.089 C 
ATOM     27  C   UNL     1       1.128   3.567   1.692  1.00  0.00     0.027 C 
ATOM     28  C   UNL     1       1.495   3.932   0.227  1.00  0.00     0.027 C 
ENDBRANCH  21  26
BRANCH  25  29
ATOM     29  C   UNL     1       5.192   0.237   0.923  1.00  0.00     0.077 C 
ATOM     30  O   UNL     1       5.343  -0.793   1.641  1.00  0.00    -0.545 OA
ATOM     31  O   UNL     1       6.333   0.702   0.263  1.00  0.00    -0.545 OA
ENDBRANCH  25  29
ENDBRANCH   4  14
TORSDOF 6
