REMARK SMILES O=C([O-])[C@H]1N=C(c2ccccc2)c2cc(Cl)ccc2NC1=O
REMARK SMILES IDX 5 1 6 2 4 3 2 5 1 6 3 7 7 8 8 9 12 10 9 11 11 12 10 13 13 14
REMARK SMILES IDX 14 15 19 16 15 17 18 18 16 19 17 20 20 21 21 22 22 24
REMARK H PARENT 20 23
REMARK Flexibility Score: 90.00
ROOT
ATOM      1  N   UNL     1      -0.223  -1.589   0.159  1.00  0.00    -0.265 NA
ATOM      2  C   UNL     1       0.340  -0.538  -0.164  1.00  0.00     0.075 C 
ENDROOT
BRANCH   1   3
ATOM      3  C   UNL     1      -1.736  -1.997   0.236  1.00  0.00     0.241 CG0
ATOM      4  G   UNL     1      -2.066  -0.935   1.412  1.00  0.00     0.000 G0
BRANCH   3   5
ATOM      5  C   UNL     1      -2.203  -1.040  -0.990  1.00  0.00     0.076 C 
ATOM      6  O   UNL     1      -2.203  -1.774  -2.026  1.00  0.00    -0.547 OA
ATOM      7  O   UNL     1      -3.512  -0.599  -0.732  1.00  0.00    -0.547 OA
ENDBRANCH   3   5
ENDBRANCH   1   3
BRANCH   2   8
ATOM      8  C   UNL     1       1.810  -0.638  -0.119  1.00  0.00     0.000 A 
ATOM      9  C   UNL     1       2.337  -0.769   1.160  1.00  0.00     0.010 A 
ATOM     10  C   UNL     1       2.545  -1.120  -1.188  1.00  0.00     0.010 A 
ATOM     11  C   UNL     1       3.534  -1.411   1.414  1.00  0.00     0.001 A 
ATOM     12  C   UNL     1       3.798  -1.658  -0.969  1.00  0.00     0.001 A 
ATOM     13  C   UNL     1       4.168  -1.980   0.328  1.00  0.00     0.000 A 
ENDBRANCH   2   8
BRANCH   2  14
ATOM     14  C   UNL     1      -0.258   0.784  -0.303  1.00  0.00     0.025 A 
ATOM     15  C   UNL     1       0.715   1.727  -0.622  1.00  0.00     0.033 A 
ATOM     16  C   UNL     1      -1.325   1.240   0.468  1.00  0.00     0.050 A 
ATOM     17  C   UNL     1       0.427   3.074  -0.578  1.00  0.00     0.041 A 
ATOM     18  C   UNL     1      -1.494   2.595   0.722  1.00  0.00     0.028 A 
ATOM     19  Cl  UNL     1       1.125   4.168  -1.766  1.00  0.00    -0.084 Cl
ATOM     20  C   UNL     1      -0.660   3.534   0.135  1.00  0.00     0.023 A 
BRANCH  16  21
ATOM     21  N   UNL     1      -2.204   0.452   1.288  1.00  0.00    -0.323 N 
ATOM     22  C   UNL     1      -2.066  -0.935   1.412  1.00  0.00     0.255 CG0
ATOM     23  H   UNL     1      -2.929   0.903   1.779  1.00  0.00     0.170 HD
ATOM     24  O   UNL     1      -2.914  -1.525   2.134  1.00  0.00    -0.272 OA
ATOM     25  G   UNL     1      -1.736  -1.997   0.236  1.00  0.00     0.000 G0
ENDBRANCH  16  21
ENDBRANCH   2  14
TORSDOF 2
