REMARK SMILES O=C([O-])CSc1nnc(Br)n1-c1ccc(C2CC2)c2ccccc12
REMARK SMILES IDX 6 1 7 2 8 3 9 4 10 5 11 6 5 7 4 8 2 9 1 10 3 11 12 12 13 13
REMARK SMILES IDX 24 14 14 15 19 16 23 17 15 18 20 19 22 20 21 21 16 22 17 23
REMARK SMILES IDX 18 24
REMARK H PARENT
REMARK Flexibility Score: inf
ROOT
ATOM      1  C   UNL     1       1.940  -1.075   1.194  1.00  0.00     0.196 A 
ATOM      2  N   UNL     1       2.284  -2.371   1.355  1.00  0.00    -0.122 NA
ATOM      3  N   UNL     1       1.972  -3.001   0.223  1.00  0.00    -0.121 NA
ATOM      4  C   UNL     1       1.182  -2.210  -0.543  1.00  0.00     0.205 A 
ATOM      5  Br  UNL     1       0.981  -2.305  -2.449  1.00  0.00    -0.005 Br
ATOM      6  N   UNL     1       0.993  -1.109   0.224  1.00  0.00    -0.264 N 
ENDROOT
BRANCH   1   7
ATOM      7  S   UNL     1       2.512   0.357   2.115  1.00  0.00    -0.080 SA
BRANCH   7   8
ATOM      8  C   UNL     1       3.475   1.464   1.062  1.00  0.00     0.130 C 
BRANCH   8   9
ATOM      9  C   UNL     1       4.434   0.734   0.195  1.00  0.00     0.052 C 
ATOM     10  O   UNL     1       5.594   1.241   0.113  1.00  0.00    -0.549 OA
ATOM     11  O   UNL     1       4.016   0.029  -0.933  1.00  0.00    -0.549 OA
ENDBRANCH   8   9
ENDBRANCH   7   8
ENDBRANCH   1   7
BRANCH   6  12
ATOM     12  C   UNL     1       0.061  -0.086  -0.061  1.00  0.00     0.058 A 
ATOM     13  C   UNL     1       0.249   1.172   0.491  1.00  0.00     0.028 A 
ATOM     14  C   UNL     1      -1.257  -0.406  -0.365  1.00  0.00     0.006 A 
ATOM     15  C   UNL     1      -0.714   2.147   0.508  1.00  0.00     0.007 A 
ATOM     16  C   UNL     1      -2.247   0.568  -0.344  1.00  0.00    -0.013 A 
ATOM     17  C   UNL     1      -1.707  -1.721  -0.400  1.00  0.00     0.011 A 
ATOM     18  C   UNL     1      -2.011   1.803   0.242  1.00  0.00    -0.037 A 
ATOM     19  C   UNL     1      -3.348   0.385  -1.172  1.00  0.00     0.009 A 
ATOM     20  C   UNL     1      -2.853  -1.932  -1.158  1.00  0.00     0.001 A 
ATOM     21  C   UNL     1      -3.540  -0.871  -1.734  1.00  0.00     0.001 A 
BRANCH  18  22
ATOM     22  C   UNL     1      -3.173   2.701   0.524  1.00  0.00     0.020 C 
ATOM     23  C   UNL     1      -4.438   2.451  -0.261  1.00  0.00     0.009 C 
ATOM     24  C   UNL     1      -4.406   2.036   1.174  1.00  0.00     0.009 C 
ENDBRANCH  18  22
ENDBRANCH   6  12
TORSDOF 5
