REMARK SMILES CC1(C)S[C@@H]2[C@H](NC(=O)[C@H]([NH3+])c3ccc(O)cc3)C(=O)N2[C@H]1C(=O)[O-]
REMARK SMILES IDX 7 1 8 2 9 3 6 5 1 6 2 7 3 8 4 9 22 10 5 11 21 12 19 13 20 14
REMARK SMILES IDX 23 15 24 16 25 17 10 18 11 19 12 23 13 24 18 25 14 26 17 27
REMARK SMILES IDX 15 28 16 29
REMARK H PARENT 7 4 11 20 11 21 11 22 16 30
REMARK Flexibility Score: inf
ROOT
ATOM      1  N   UNL     1      -0.262  -1.303   0.203  1.00  0.00    -0.336 N 
ATOM      2  C   UNL     1       0.936  -0.680  -0.104  1.00  0.00     0.283 C 
ATOM      3  O   UNL     1       0.716   0.354  -0.814  1.00  0.00    -0.268 OA
ATOM      4  H   UNL     1      -0.496  -1.477   1.143  1.00  0.00     0.164 HD
ENDROOT
BRANCH   1   5
ATOM      5  C   UNL     1      -1.255  -1.736  -0.943  1.00  0.00     0.205 C 
ATOM      6  C   UNL     1      -3.825   0.323   1.514  1.00  0.00     0.025 C 
ATOM      7  C   UNL     1      -3.639   0.176   1.461  1.00  0.00     0.038 C 
ATOM      8  C   UNL     1      -4.883  -0.183   0.711  1.00  0.00     0.025 C 
ATOM      9  S   UNL     1      -2.384  -1.137   1.634  1.00  0.00    -0.125 SA
ATOM     10  C   UNL     1      -2.577   0.960   0.488  1.00  0.00     0.148 C 
ATOM     11  C   UNL     1      -2.750  -1.477  -0.198  1.00  0.00     0.176 C 
ATOM     12  N   UNL     1      -2.618  -0.062  -0.690  1.00  0.00    -0.317 N 
ATOM     13  C   UNL     1      -1.493  -0.266  -1.557  1.00  0.00     0.249 C 
ATOM     14  O   UNL     1      -1.343  -0.110  -2.802  1.00  0.00    -0.272 OA
BRANCH  10  15
ATOM     15  C   UNL     1      -3.715   1.891  -0.194  1.00  0.00     0.065 C 
ATOM     16  O   UNL     1      -4.547   2.394   0.570  1.00  0.00    -0.548 OA
ATOM     17  O   UNL     1      -3.031   2.819  -0.997  1.00  0.00    -0.548 OA
ENDBRANCH  10  15
ENDBRANCH   1   5
BRANCH   2  18
ATOM     18  C   UNL     1       2.198  -1.425  -0.792  1.00  0.00     0.302 C 
BRANCH  18  19
ATOM     19  N   UNL     1       2.250  -2.589   0.276  1.00  0.00    -0.343 N 
ATOM     20  H   UNL     1       2.201  -2.193   1.214  1.00  0.00     0.345 HD
ATOM     21  H   UNL     1       3.123  -3.108   0.171  1.00  0.00     0.345 HD
ATOM     22  H   UNL     1       1.461  -3.219   0.131  1.00  0.00     0.345 HD
ENDBRANCH  18  19
BRANCH  18  23
ATOM     23  C   UNL     1       3.314  -0.559  -0.009  1.00  0.00     0.019 A 
ATOM     24  C   UNL     1       4.540  -0.575  -0.641  1.00  0.00     0.014 A 
ATOM     25  C   UNL     1       3.154  -0.247   1.276  1.00  0.00     0.014 A 
ATOM     26  C   UNL     1       5.519   0.251  -0.144  1.00  0.00     0.046 A 
ATOM     27  C   UNL     1       4.203   0.472   1.844  1.00  0.00     0.046 A 
ATOM     28  C   UNL     1       5.351   0.797   1.118  1.00  0.00     0.115 A 
BRANCH  28  29
ATOM     29  O   UNL     1       6.143   1.911   1.428  1.00  0.00    -0.508 OA
ATOM     30  H   UNL     1       6.906   2.100   0.919  1.00  0.00     0.293 HD
ENDBRANCH  28  29
ENDBRANCH  18  23
ENDBRANCH   2  18
TORSDOF 6
