REMARK SMILES C[C@H]([NH2+][C@@H](CCc1ccccc1)C(=O)[O-])C(=O)N1CCC[C@H]1C(=O)[O-]
REMARK SMILES IDX 3 1 2 4 1 5 16 6 17 7 18 8 19 9 22 10 20 11 21 12 23 13
REMARK SMILES IDX 24 14 25 15 4 16 5 17 6 18 7 19 8 20 12 21 9 22 11 23 10 24
REMARK SMILES IDX 13 25 14 26 15 27
REMARK H PARENT 3 2 3 3
REMARK Flexibility Score: inf
ROOT
ATOM      1  N   UNL     1       0.500  -1.057  -0.560  1.00  0.00    -0.329 N 
ATOM      2  H   UNL     1       0.596  -1.946  -1.050  1.00  0.00     0.347 HD
ATOM      3  H   UNL     1       0.783  -0.396  -1.283  1.00  0.00     0.347 HD
ENDROOT
BRANCH   1   4
ATOM      4  C   UNL     1       1.302  -1.022   0.833  1.00  0.00     0.270 C 
ATOM      5  C   UNL     1       1.673  -2.652   0.708  1.00  0.00     0.086 C 
BRANCH   4   6
ATOM      6  C   UNL     1       2.704  -0.588   0.089  1.00  0.00     0.281 C 
ATOM      7  O   UNL     1       3.714  -1.056   0.705  1.00  0.00    -0.268 OA
BRANCH   6   8
ATOM      8  N   UNL     1       2.757   0.845  -0.054  1.00  0.00    -0.329 N 
ATOM      9  C   UNL     1       1.623   1.635  -0.466  1.00  0.00     0.120 C 
ATOM     10  C   UNL     1       3.750   1.199  -1.268  1.00  0.00     0.131 C 
ATOM     11  C   UNL     1       2.118   2.951  -0.962  1.00  0.00     0.024 C 
ATOM     12  C   UNL     1       3.616   2.843  -0.961  1.00  0.00     0.033 C 
BRANCH  10  13
ATOM     13  C   UNL     1       5.080   1.063  -0.315  1.00  0.00     0.064 C 
ATOM     14  O   UNL     1       5.954   0.314  -0.782  1.00  0.00    -0.548 OA
ATOM     15  O   UNL     1       5.043   1.670   0.890  1.00  0.00    -0.548 OA
ENDBRANCH  10  13
ENDBRANCH   6   8
ENDBRANCH   4   6
ENDBRANCH   1   4
BRANCH   1  16
ATOM     16  C   UNL     1      -0.956  -0.858   0.098  1.00  0.00     0.230 C 
BRANCH  16  17
ATOM     17  C   UNL     1      -1.592  -0.261  -1.335  1.00  0.00     0.076 C 
BRANCH  17  18
ATOM     18  C   UNL     1      -3.041  -0.640  -1.276  1.00  0.00     0.042 C 
BRANCH  18  19
ATOM     19  C   UNL     1      -3.789   0.054  -0.198  1.00  0.00    -0.048 A 
ATOM     20  C   UNL     1      -4.776  -0.698   0.427  1.00  0.00     0.004 A 
ATOM     21  C   UNL     1      -3.936   1.432  -0.142  1.00  0.00     0.004 A 
ATOM     22  C   UNL     1      -5.978  -0.135   0.839  1.00  0.00     0.000 A 
ATOM     23  C   UNL     1      -5.082   2.006   0.399  1.00  0.00     0.000 A 
ATOM     24  C   UNL     1      -6.164   1.229   0.716  1.00  0.00     0.000 A 
ENDBRANCH  18  19
ENDBRANCH  17  18
ENDBRANCH  16  17
BRANCH  16  25
ATOM     25  C   UNL     1      -1.421  -2.392  -0.258  1.00  0.00     0.099 C 
ATOM     26  O   UNL     1      -1.172  -2.794  -1.385  1.00  0.00    -0.544 OA
ATOM     27  O   UNL     1      -1.926  -3.090   0.808  1.00  0.00    -0.544 OA
ENDBRANCH  16  25
ENDBRANCH   1  16
TORSDOF 9
