REMARK SMILES C=C(CC)C(=O)c1ccc(OCC(=O)[O-])c(Cl)c1Cl
REMARK SMILES IDX 7 1 8 2 9 3 10 4 16 5 17 6 18 7 19 8 5 9 6 10 2 11 1 12 3 13
REMARK SMILES IDX 4 14 11 15 12 16 13 17 14 18 15 19
REMARK H PARENT
REMARK Flexibility Score: inf
ROOT
ATOM      1  C   UNL     1      -1.476  -0.666  -0.727  1.00  0.00     0.043 A 
ATOM      2  C   UNL     1      -0.816   0.127  -1.655  1.00  0.00     0.017 A 
ATOM      3  C   UNL     1       0.570   0.092  -1.752  1.00  0.00     0.049 A 
ATOM      4  C   UNL     1       1.341  -0.606  -0.831  1.00  0.00     0.140 A 
ATOM      5  C   UNL     1       0.669  -1.237   0.193  1.00  0.00     0.102 A 
ATOM      6  Cl  UNL     1       1.516  -1.712   1.661  1.00  0.00    -0.079 Cl
ATOM      7  C   UNL     1      -0.674  -1.536   0.000  1.00  0.00     0.074 A 
ATOM      8  Cl  UNL     1      -1.457  -2.699   1.056  1.00  0.00    -0.082 Cl
ENDROOT
BRANCH   1   9
ATOM      9  C   UNL     1      -2.914  -0.545  -0.501  1.00  0.00     0.189 C 
ATOM     10  O   UNL     1      -3.394  -1.220   0.460  1.00  0.00    -0.289 OA
BRANCH   9  11
ATOM     11  C   UNL     1      -3.602   0.701  -0.834  1.00  0.00    -0.007 C 
ATOM     12  C   UNL     1      -4.893   0.832  -0.595  1.00  0.00     0.016 C 
BRANCH  11  13
ATOM     13  C   UNL     1      -2.897   1.881  -1.394  1.00  0.00     0.035 C 
ATOM     14  C   UNL     1      -2.394   2.793  -0.287  1.00  0.00     0.009 C 
ENDBRANCH  11  13
ENDBRANCH   9  11
ENDBRANCH   1   9
BRANCH   4  15
ATOM     15  O   UNL     1       2.697  -0.311  -0.669  1.00  0.00    -0.486 OA
BRANCH  15  16
ATOM     16  C   UNL     1       3.144   0.454   0.434  1.00  0.00     0.282 C 
BRANCH  16  17
ATOM     17  C   UNL     1       4.461   1.100   0.140  1.00  0.00     0.079 C 
ATOM     18  O   UNL     1       4.580   2.312  -0.145  1.00  0.00    -0.546 OA
ATOM     19  O   UNL     1       5.538   0.241  -0.072  1.00  0.00    -0.546 OA
ENDBRANCH  16  17
ENDBRANCH  15  16
ENDBRANCH   4  15
TORSDOF 6
