REMARK SMILES CCOC(=O)[C@H](CCc1ccccc1)[NH2+][C@@H](C)C(=O)N1Cc2ccccc2C[C@H]1C(=O)[O-]
REMARK SMILES IDX 15 1 6 4 4 5 5 6 3 7 2 8 1 9 7 10 8 11 9 12 10 13 14 14
REMARK SMILES IDX 11 15 13 16 12 17 16 18 17 19 18 20 19 21 20 22 21 23 29 24
REMARK SMILES IDX 22 25 28 26 23 27 27 28 24 29 26 30 25 31 30 32 31 33 32 34
REMARK H PARENT 15 2 15 3
REMARK Flexibility Score: inf
ROOT
ATOM      1  N   UNL     1      -0.919   0.345  -1.043  1.00  0.00    -0.325 N 
ATOM      2  H   UNL     1      -0.506   1.224  -1.354  1.00  0.00     0.347 HD
ATOM      3  H   UNL     1      -1.505   0.082  -1.836  1.00  0.00     0.347 HD
ENDROOT
BRANCH   1   4
ATOM      4  C   UNL     1      -1.667   0.490   0.372  1.00  0.00     0.294 C 
BRANCH   4   5
ATOM      5  C   UNL     1      -1.794  -1.129   0.618  1.00  0.00     0.364 C 
ATOM      6  O   UNL     1      -2.026  -1.419   1.818  1.00  0.00    -0.245 OA
BRANCH   5   7
ATOM      7  O   UNL     1      -2.104  -1.888  -0.461  1.00  0.00    -0.462 OA
BRANCH   7   8
ATOM      8  C   UNL     1      -2.132  -3.294  -0.241  1.00  0.00     0.229 C 
ATOM      9  C   UNL     1      -2.281  -3.519  -0.177  1.00  0.00     0.049 C 
ENDBRANCH   7   8
ENDBRANCH   5   7
ENDBRANCH   4   5
BRANCH   4  10
ATOM     10  C   UNL     1      -3.162   0.554  -0.380  1.00  0.00     0.082 C 
BRANCH  10  11
ATOM     11  C   UNL     1      -4.125   0.135   0.724  1.00  0.00     0.042 C 
BRANCH  11  12
ATOM     12  C   UNL     1      -5.464   0.606   0.245  1.00  0.00    -0.048 A 
ATOM     13  C   UNL     1      -6.060   0.073  -0.889  1.00  0.00     0.004 A 
ATOM     14  C   UNL     1      -5.727   1.950   0.476  1.00  0.00     0.004 A 
ATOM     15  C   UNL     1      -6.944   0.802  -1.676  1.00  0.00     0.000 A 
ATOM     16  C   UNL     1      -6.551   2.696  -0.355  1.00  0.00     0.000 A 
ATOM     17  C   UNL     1      -6.888   2.188  -1.603  1.00  0.00     0.000 A 
ENDBRANCH  11  12
ENDBRANCH  10  11
ENDBRANCH   4  10
ENDBRANCH   1   4
BRANCH   1  18
ATOM     18  C   UNL     1       0.189  -0.725  -0.595  1.00  0.00     0.270 C 
ATOM     19  C   UNL     1       0.505  -1.098  -2.195  1.00  0.00     0.086 C 
BRANCH  18  20
ATOM     20  C   UNL     1       1.396   0.393  -0.561  1.00  0.00     0.281 C 
ATOM     21  O   UNL     1       1.047   1.439   0.074  1.00  0.00    -0.268 OA
BRANCH  20  22
ATOM     22  N   UNL     1       2.531  -0.288   0.017  1.00  0.00    -0.325 N 
ATOM     23  C   UNL     1       3.153   0.125   1.204  1.00  0.00     0.156 C 
ATOM     24  C   UNL     1       3.410  -0.897  -1.181  1.00  0.00     0.136 C 
ATOM     25  C   UNL     1       4.181   1.154   0.851  1.00  0.00    -0.025 A 
ATOM     26  C   UNL     1       4.893  -0.743  -0.404  1.00  0.00     0.067 C 
ATOM     27  C   UNL     1       4.060   2.493   1.086  1.00  0.00     0.006 A 
ATOM     28  C   UNL     1       5.006   0.738  -0.192  1.00  0.00    -0.041 A 
ATOM     29  C   UNL     1       5.192   3.252   0.801  1.00  0.00     0.000 A 
ATOM     30  C   UNL     1       6.233   1.391  -0.264  1.00  0.00     0.004 A 
ATOM     31  C   UNL     1       6.342   2.663   0.287  1.00  0.00     0.000 A 
BRANCH  24  32
ATOM     32  C   UNL     1       3.296  -2.456  -0.680  1.00  0.00     0.064 C 
ATOM     33  O   UNL     1       2.574  -2.726   0.254  1.00  0.00    -0.548 OA
ATOM     34  O   UNL     1       3.838  -3.304  -1.622  1.00  0.00    -0.548 OA
ENDBRANCH  24  32
ENDBRANCH  20  22
ENDBRANCH  18  20
ENDBRANCH   1  18
TORSDOF 11
