REMARK SMILES [NH3+]CCC[C@]([NH3+])(C(=O)[O-])C(F)F
REMARK SMILES IDX 3 1 2 2 1 3 4 7 5 8 6 9 7 13 8 14 9 15 10 16 11 17 12 18
REMARK H PARENT 1 4 1 5 1 6 6 10 6 11 6 12
REMARK Flexibility Score: inf
ROOT
ATOM      1  C   UNL     1       1.665  -0.001   0.138  1.00  0.00     0.068 C 
ENDROOT
BRANCH   1   2
ATOM      2  C   UNL     1       2.942  -0.742  -0.196  1.00  0.00     0.259 C 
BRANCH   2   3
ATOM      3  N   UNL     1       2.622  -2.148  -0.205  1.00  0.00    -0.358 N 
ATOM      4  H   UNL     1       3.459  -2.686  -0.427  1.00  0.00     0.344 HD
ATOM      5  H   UNL     1       1.905  -2.329  -0.907  1.00  0.00     0.344 HD
ATOM      6  H   UNL     1       2.275  -2.423   0.714  1.00  0.00     0.344 HD
ENDBRANCH   2   3
ENDBRANCH   1   2
BRANCH   1   7
ATOM      7  C   UNL     1       0.521  -0.452  -0.733  1.00  0.00     0.087 C 
BRANCH   7   8
ATOM      8  C   UNL     1      -0.766   0.145  -0.235  1.00  0.00     0.196 C 
BRANCH   8   9
ATOM      9  N   UNL     1      -1.671   0.498  -1.323  1.00  0.00    -0.343 N 
ATOM     10  H   UNL     1      -1.208   1.157  -1.950  1.00  0.00     0.345 HD
ATOM     11  H   UNL     1      -2.513   0.927  -0.939  1.00  0.00     0.345 HD
ATOM     12  H   UNL     1      -1.924  -0.343  -1.841  1.00  0.00     0.345 HD
ENDBRANCH   8   9
BRANCH   8  13
ATOM     13  C   UNL     1      -0.440   1.356   0.549  1.00  0.00     0.109 C 
ATOM     14  O   UNL     1      -0.516   1.442   1.793  1.00  0.00    -0.544 OA
ATOM     15  O   UNL     1       0.293   2.351  -0.103  1.00  0.00    -0.544 OA
ENDBRANCH   8  13
BRANCH   8  16
ATOM     16  C   UNL     1      -1.476  -0.834   0.679  1.00  0.00     0.408 C 
ATOM     17  F   UNL     1      -2.566  -0.235   1.255  1.00  0.00    -0.203 F 
ATOM     18  F   UNL     1      -0.608  -1.380   1.590  1.00  0.00    -0.203 F 
ENDBRANCH   8  16
ENDBRANCH   7   8
ENDBRANCH   1   7
TORSDOF 7
