REMARK SMILES C[C@H](CS)C(=O)N1CCC[C@H]1C(=O)[O-]
REMARK SMILES IDX 1 1 2 2 3 3 4 4 5 6 6 7 7 8 8 9 11 10 9 11 10 12 12 13 13 14
REMARK SMILES IDX 14 15
REMARK H PARENT 4 5
REMARK Flexibility Score: inf
ROOT
ATOM      1  C   UNL     1       2.277   2.393  -0.150  1.00  0.00     0.019 C 
ATOM      2  C   UNL     1       1.995   1.080   0.781  1.00  0.00     0.085 C 
ENDROOT
BRANCH   2   3
ATOM      3  C   UNL     1       3.380   0.348   0.311  1.00  0.00     0.079 C 
BRANCH   3   4
ATOM      4  S   UNL     1       2.967  -1.415   0.089  1.00  0.00    -0.179 SA
ATOM      5  H   UNL     1       2.486  -1.917   1.257  1.00  0.00     0.102 HD
ENDBRANCH   3   4
ENDBRANCH   2   3
BRANCH   2   6
ATOM      6  C   UNL     1       1.105   0.369  -0.343  1.00  0.00     0.226 C 
ATOM      7  O   UNL     1       1.546   0.262  -1.483  1.00  0.00    -0.275 OA
BRANCH   6   8
ATOM      8  N   UNL     1      -0.121  -0.110   0.153  1.00  0.00    -0.334 N 
ATOM      9  C   UNL     1      -0.465  -0.931   1.259  1.00  0.00     0.120 C 
ATOM     10  C   UNL     1      -1.364  -0.095  -0.806  1.00  0.00     0.131 C 
ATOM     11  C   UNL     1      -1.549  -1.877   0.852  1.00  0.00     0.024 C 
ATOM     12  C   UNL     1      -1.579  -1.711  -0.629  1.00  0.00     0.033 C 
BRANCH  10  13
ATOM     13  C   UNL     1      -2.388   0.256   0.392  1.00  0.00     0.064 C 
ATOM     14  O   UNL     1      -2.120   1.360   0.956  1.00  0.00    -0.548 OA
ATOM     15  O   UNL     1      -3.683   0.070  -0.105  1.00  0.00    -0.548 OA
ENDBRANCH  10  13
ENDBRANCH   6   8
ENDBRANCH   2   6
TORSDOF 5
