REMARK SMILES Nc1ccc(O)c(C(=O)[O-])c1
REMARK SMILES IDX 2 1 3 2 4 3 5 4 7 5 11 6 1 7 8 10 9 11 10 12 6 13
REMARK H PARENT 1 8 1 9 6 14
REMARK Flexibility Score: inf
ROOT
ATOM      1  C   UNL     1       1.843  -0.782  -0.097  1.00  0.00     0.032 A 
ATOM      2  C   UNL     1       2.148   0.542  -0.391  1.00  0.00     0.029 A 
ATOM      3  C   UNL     1       1.175   1.526  -0.430  1.00  0.00     0.049 A 
ATOM      4  C   UNL     1      -0.104   1.210   0.007  1.00  0.00     0.124 A 
ATOM      5  C   UNL     1      -0.488  -0.123  -0.072  1.00  0.00     0.041 A 
ATOM      6  C   UNL     1       0.489  -1.089  -0.117  1.00  0.00     0.039 A 
ENDROOT
BRANCH   1   7
ATOM      7  N   UNL     1       2.821  -1.667   0.453  1.00  0.00    -0.399 N 
ATOM      8  H   UNL     1       3.772  -1.413   0.449  1.00  0.00     0.156 HD
ATOM      9  H   UNL     1       2.543  -2.530   0.837  1.00  0.00     0.156 HD
ENDBRANCH   1   7
BRANCH   5  10
ATOM     10  C   UNL     1      -1.911  -0.404  -0.077  1.00  0.00     0.075 C 
ATOM     11  O   UNL     1      -2.621  -0.442  -1.116  1.00  0.00    -0.545 OA
ATOM     12  O   UNL     1      -2.474  -0.890   1.105  1.00  0.00    -0.545 OA
ENDBRANCH   5  10
BRANCH   4  13
ATOM     13  O   UNL     1      -0.878   2.119   0.736  1.00  0.00    -0.507 OA
ATOM     14  H   UNL     1      -0.620   3.018   0.790  1.00  0.00     0.293 HD
ENDBRANCH   4  13
TORSDOF 3
