REMARK SMILES O=C([O-])c1cc(/N=N/c2ccc(S(=O)(=O)Nc3ccccn3)cc2)ccc1O
REMARK SMILES IDX 9 1 10 2 11 3 12 4 23 5 24 6 8 7 7 8 6 9 4 10 5 11 27 12
REMARK SMILES IDX 26 13 25 14 2 15 1 16 3 17 28 18 13 20 14 21 15 22 16 23
REMARK SMILES IDX 17 25 18 26 22 27 19 28 21 29 20 30
REMARK H PARENT 28 19 16 24
REMARK Flexibility Score: inf
ROOT
ATOM      1  C   UNL     1      -0.097   0.966  -0.131  1.00  0.00     0.086 A 
ATOM      2  C   UNL     1       0.265   0.499   1.126  1.00  0.00     0.031 A 
ATOM      3  C   UNL     1       1.303  -0.407   1.301  1.00  0.00     0.024 A 
ATOM      4  C   UNL     1       2.283  -0.440   0.323  1.00  0.00     0.088 A 
ATOM      5  C   UNL     1       2.076   0.263  -0.859  1.00  0.00     0.024 A 
ATOM      6  C   UNL     1       0.904   0.972  -1.082  1.00  0.00     0.031 A 
ENDROOT
BRANCH   1   7
ATOM      7  N   UNL     1      -1.462   1.102  -0.514  1.00  0.00    -0.151 NA
ATOM      8  N   UNL     1      -2.162   0.159  -0.983  1.00  0.00    -0.151 NA
BRANCH   8   9
ATOM      9  C   UNL     1      -3.456  -0.185  -0.475  1.00  0.00     0.087 A 
ATOM     10  C   UNL     1      -5.773   0.462  -0.120  1.00  0.00     0.041 A 
ATOM     11  C   UNL     1      -4.603   0.480  -0.864  1.00  0.00     0.044 A 
ATOM     12  C   UNL     1      -5.628   0.045   1.198  1.00  0.00     0.124 A 
ATOM     13  C   UNL     1      -4.577  -0.801   1.529  1.00  0.00     0.049 A 
ATOM     14  C   UNL     1      -3.569  -1.053   0.605  1.00  0.00     0.034 A 
BRANCH  10  15
ATOM     15  C   UNL     1      -7.096   0.564  -0.751  1.00  0.00     0.075 C 
ATOM     16  O   UNL     1      -7.909   1.453  -0.371  1.00  0.00    -0.545 OA
ATOM     17  O   UNL     1      -7.677  -0.605  -1.254  1.00  0.00    -0.545 OA
ENDBRANCH  10  15
BRANCH  12  18
ATOM     18  O   UNL     1      -6.687   0.244   2.060  1.00  0.00    -0.507 OA
ATOM     19  H   UNL     1      -6.620  -0.026   2.955  1.00  0.00     0.293 HD
ENDBRANCH  12  18
ENDBRANCH   8   9
ENDBRANCH   1   7
BRANCH   4  20
ATOM     20  S   UNL     1       3.442  -1.730   0.283  1.00  0.00     0.263 S 
ATOM     21  O   UNL     1       2.945  -2.940   1.036  1.00  0.00    -0.201 OA
ATOM     22  O   UNL     1       3.787  -2.169  -1.103  1.00  0.00    -0.201 OA
BRANCH  20  23
ATOM     23  N   UNL     1       4.914  -1.218   1.036  1.00  0.00    -0.263 N 
ATOM     24  H   UNL     1       5.162  -1.589   1.913  1.00  0.00     0.182 HD
BRANCH  23  25
ATOM     25  C   UNL     1       5.772  -0.269   0.407  1.00  0.00     0.139 A 
ATOM     26  C   UNL     1       6.160   0.895   1.060  1.00  0.00     0.048 A 
ATOM     27  N   UNL     1       5.797  -0.213  -0.946  1.00  0.00    -0.239 NA
ATOM     28  C   UNL     1       6.965   1.814   0.419  1.00  0.00     0.005 A 
ATOM     29  C   UNL     1       6.735   0.533  -1.535  1.00  0.00     0.113 A 
ATOM     30  C   UNL     1       7.351   1.580  -0.884  1.00  0.00     0.020 A 
ENDBRANCH  23  25
ENDBRANCH  20  23
ENDBRANCH   4  20
TORSDOF 7
