REMARK SMILES C[C@H](CCC(=O)[O-])[C@H]1CC[C@H]2[C@@H]3[C@H](O)C[C@@H]4C[C@H](O)CC[C@]4(C)[C@H]3C[C@H](O)[C@]12C
REMARK SMILES IDX 1 1 2 2 3 3 4 4 5 5 6 6 7 7 8 8 9 9 28 10 10 11 11 12 26 13
REMARK SMILES IDX 29 14 12 15 25 16 13 17 24 18 15 19 22 20 16 21 21 22 23 23
REMARK SMILES IDX 17 24 20 25 18 26 27 27 14 29 19 31
REMARK H PARENT 27 28 14 30 19 32
REMARK Flexibility Score: inf
ROOT
ATOM      1  C   UNL     1       4.257   2.009  -0.525  1.00  0.00     0.008 C 
ATOM      2  C   UNL     1       3.389   0.945   0.347  1.00  0.00    -0.010 C 
ENDROOT
BRANCH   2   3
ATOM      3  C   UNL     1       3.874  -0.303  -0.562  1.00  0.00     0.009 C 
BRANCH   3   4
ATOM      4  C   UNL     1       4.665  -1.225   0.290  1.00  0.00     0.053 C 
BRANCH   4   5
ATOM      5  C   UNL     1       5.851  -0.626   0.909  1.00  0.00     0.041 C 
ATOM      6  O   UNL     1       6.605   0.215   0.382  1.00  0.00    -0.550 OA
ATOM      7  O   UNL     1       6.062  -0.937   2.254  1.00  0.00    -0.550 OA
ENDBRANCH   4   5
ENDBRANCH   3   4
ENDBRANCH   2   3
BRANCH   2   8
ATOM      8  C   UNL     1       1.960   1.365  -0.489  1.00  0.00     0.001 C 
ATOM      9  C   UNL     1       2.238   0.560  -1.867  1.00  0.00     0.005 C 
ATOM     10  C   UNL     1       1.028   0.194   0.095  1.00  0.00    -0.000 C 
ATOM     11  C   UNL     1       1.020  -0.244  -2.119  1.00  0.00     0.005 C 
ATOM     12  C   UNL     1      -0.013   0.486  -1.102  1.00  0.00     0.004 C 
ATOM     13  C   UNL     1       0.343   0.870   1.416  1.00  0.00     0.121 C 
ATOM     14  C   UNL     1       1.465  -1.061   0.219  1.00  0.00     0.015 C 
ATOM     15  C   UNL     1      -0.907  -0.891  -0.770  1.00  0.00     0.025 C 
ATOM     16  C   UNL     1      -0.836  -0.285   1.505  1.00  0.00     0.037 C 
ATOM     17  C   UNL     1      -1.803  -0.661  -2.194  1.00  0.00     0.118 C 
ATOM     18  C   UNL     1      -1.827   0.043   0.262  1.00  0.00     0.004 C 
ATOM     19  C   UNL     1      -3.092  -1.519  -1.767  1.00  0.00     0.036 C 
ATOM     20  C   UNL     1      -2.797  -1.174   0.660  1.00  0.00    -0.026 C 
ATOM     21  C   UNL     1      -3.969  -1.169  -0.481  1.00  0.00     0.000 C 
ATOM     22  C   UNL     1      -3.549  -0.736   1.887  1.00  0.00     0.010 C 
ATOM     23  C   UNL     1      -2.131  -2.445   0.703  1.00  0.00     0.012 C 
ATOM     24  C   UNL     1      -4.099   0.475  -0.596  1.00  0.00     0.036 C 
ATOM     25  C   UNL     1      -4.169   0.629   1.755  1.00  0.00     0.032 C 
ATOM     26  C   UNL     1      -5.293   0.484   0.551  1.00  0.00     0.114 C 
BRANCH  13  27
ATOM     27  O   UNL     1      -0.486   1.909   0.662  1.00  0.00    -0.393 OA
ATOM     28  H   UNL     1      -0.942   1.482  -0.080  1.00  0.00     0.210 HD
ENDBRANCH  13  27
BRANCH  17  29
ATOM     29  O   UNL     1      -2.305   0.745  -1.881  1.00  0.00    -0.393 OA
ATOM     30  H   UNL     1      -2.676   0.764  -0.986  1.00  0.00     0.210 HD
ENDBRANCH  17  29
BRANCH  26  31
ATOM     31  O   UNL     1      -5.479   1.991   0.455  1.00  0.00    -0.393 OA
ATOM     32  H   UNL     1      -4.611   2.424   0.454  1.00  0.00     0.210 HD
ENDBRANCH  26  31
ENDBRANCH   2   8
TORSDOF 7
