REMARK SMILES CCCN(CCC)S(=O)(=O)c1ccc(C(=O)[O-])cc1
REMARK SMILES IDX 8 1 9 2 10 3 4 4 3 5 2 6 1 7 5 8 6 9 7 10 11 11 12 12 19 13
REMARK SMILES IDX 13 14 18 15 14 16 15 17 16 18 17 19
REMARK H PARENT
REMARK Flexibility Score: inf
ROOT
ATOM      1  S   UNL     1      -1.113  -0.648   0.207  1.00  0.00     0.243 S 
ATOM      2  O   UNL     1      -1.201  -1.891  -0.617  1.00  0.00    -0.207 OA
ATOM      3  O   UNL     1      -1.535  -0.881   1.626  1.00  0.00    -0.207 OA
ENDROOT
BRANCH   1   4
ATOM      4  N   UNL     1      -2.087   0.558  -0.566  1.00  0.00    -0.198 NA
BRANCH   4   5
ATOM      5  C   UNL     1      -2.276   1.652   0.377  1.00  0.00     0.102 C 
BRANCH   5   6
ATOM      6  C   UNL     1      -3.702   2.136   0.346  1.00  0.00     0.013 C 
ATOM      7  C   UNL     1      -3.899   3.269  -0.654  1.00  0.00     0.005 C 
ENDBRANCH   5   6
ENDBRANCH   4   5
BRANCH   4   8
ATOM      8  C   UNL     1      -3.385  -0.071  -0.807  1.00  0.00     0.102 C 
BRANCH   8   9
ATOM      9  C   UNL     1      -3.634  -1.197   0.171  1.00  0.00     0.013 C 
ATOM     10  C   UNL     1      -4.324  -2.376  -0.455  1.00  0.00     0.005 C 
ENDBRANCH   8   9
ENDBRANCH   4   8
ENDBRANCH   1   4
BRANCH   1  11
ATOM     11  C   UNL     1       0.578  -0.167   0.253  1.00  0.00     0.082 A 
ATOM     12  C   UNL     1       1.399  -0.956   1.050  1.00  0.00     0.022 A 
ATOM     13  C   UNL     1       1.166   0.413  -0.850  1.00  0.00     0.022 A 
ATOM     14  C   UNL     1       2.758  -1.069   0.786  1.00  0.00     0.011 A 
ATOM     15  C   UNL     1       2.546   0.430  -1.013  1.00  0.00     0.011 A 
ATOM     16  C   UNL     1       3.315  -0.078   0.010  1.00  0.00    -0.003 A 
BRANCH  16  17
ATOM     17  C   UNL     1       4.733   0.266   0.163  1.00  0.00     0.071 C 
ATOM     18  O   UNL     1       5.560  -0.690   0.067  1.00  0.00    -0.545 OA
ATOM     19  O   UNL     1       5.101   1.298   1.016  1.00  0.00    -0.545 OA
ENDBRANCH  16  17
ENDBRANCH   1  11
TORSDOF 7
