REMARK SMILES [NH3+]C[C@@H](CC(=O)[O-])c1ccc(Cl)cc1
REMARK SMILES IDX 3 1 2 2 1 3 4 7 5 8 6 9 7 10 8 11 9 12 14 13 10 14 13 15
REMARK SMILES IDX 11 16 12 17
REMARK H PARENT 1 4 1 5 1 6
REMARK Flexibility Score: inf
ROOT
ATOM      1  C   UNL     1       0.860   0.645  -0.875  1.00  0.00     0.080 C 
ENDROOT
BRANCH   1   2
ATOM      2  C   UNL     1       1.440   1.198   0.578  1.00  0.00     0.267 C 
BRANCH   2   3
ATOM      3  N   UNL     1       1.465   1.919   0.553  1.00  0.00    -0.357 N 
ATOM      4  H   UNL     1       1.820   2.279   1.439  1.00  0.00     0.344 HD
ATOM      5  H   UNL     1       0.528   2.286   0.388  1.00  0.00     0.344 HD
ATOM      6  H   UNL     1       2.083   2.212  -0.205  1.00  0.00     0.344 HD
ENDBRANCH   2   3
ENDBRANCH   1   2
BRANCH   1   7
ATOM      7  C   UNL     1       1.664  -0.799  -0.779  1.00  0.00     0.067 C 
BRANCH   7   8
ATOM      8  C   UNL     1       2.953  -0.546  -0.157  1.00  0.00     0.042 C 
ATOM      9  O   UNL     1       3.436  -1.403   0.642  1.00  0.00    -0.550 OA
ATOM     10  O   UNL     1       3.793   0.513  -0.517  1.00  0.00    -0.550 OA
ENDBRANCH   7   8
ENDBRANCH   1   7
BRANCH   1  11
ATOM     11  C   UNL     1      -0.451   0.012  -0.148  1.00  0.00    -0.039 A 
ATOM     12  C   UNL     1      -1.002  -1.002  -0.880  1.00  0.00     0.006 A 
ATOM     13  C   UNL     1      -1.242   1.012   0.402  1.00  0.00     0.006 A 
ATOM     14  C   UNL     1      -2.322  -1.320  -0.596  1.00  0.00     0.021 A 
ATOM     15  C   UNL     1      -2.562   0.700   0.637  1.00  0.00     0.021 A 
ATOM     16  C   UNL     1      -3.150  -0.406   0.038  1.00  0.00     0.041 A 
ATOM     17  Cl  UNL     1      -4.882  -0.523  -0.144  1.00  0.00    -0.084 Cl
ENDBRANCH   1  11
TORSDOF 5
