REMARK SMILES C[C@H](O)C[N@H+]1CC[N@H+](CC(=O)[O-])CC[N@@H+](CC(=O)[O-])CC[N@H+](CC(=O)[O-])CC1
REMARK SMILES IDX 21 1 22 2 27 4 28 5 5 6 4 8 2 9 1 10 3 11 6 13 23 15 24 16
REMARK SMILES IDX 25 17 26 18 20 19 15 20 14 22 13 23 8 24 7 26 9 28 10 29
REMARK SMILES IDX 11 30 12 31 16 32 17 33 18 34 19 35
REMARK H PARENT 22 3 5 7 3 12 15 21 8 25
REMARK Flexibility Score: 60.00
ROOT
ATOM      1  C   UNL     1      -2.383   0.882  -0.440  1.00  0.00     0.324 C 
ENDROOT
BRANCH   1   2
ATOM      2  N   UNL     1      -2.339  -0.566  -0.276  1.00  0.00    -0.321 N 
ATOM      3  H   UNL     1      -2.363  -1.015  -1.191  1.00  0.00     0.348 HD
BRANCH   2   4
ATOM      4  C   UNL     1      -1.115  -0.927   0.273  1.00  0.00     0.324 C 
BRANCH   4   5
ATOM      5  C   UNL     1      -0.956  -1.941   1.298  1.00  0.00     0.324 C 
BRANCH   5   6
ATOM      6  N   UNL     1       0.222  -2.700   0.853  1.00  0.00    -0.323 N 
ATOM      7  H   UNL     1       0.592  -3.474   1.404  1.00  0.00     0.348 HD
BRANCH   6   8
ATOM      8  C   UNL     1      -0.240  -3.296  -0.314  1.00  0.00     0.294 C 
BRANCH   8   9
ATOM      9  C   UNL     1       0.965  -4.157  -1.029  1.00  0.00     0.166 C 
ATOM     10  C   UNL     1       0.900  -3.185  -2.369  1.00  0.00     0.044 C 
BRANCH   9  11
ATOM     11  O   UNL     1      -0.040  -5.129  -1.643  1.00  0.00    -0.388 OA
ATOM     12  H   UNL     1      -0.777  -4.631  -2.030  1.00  0.00     0.211 HD
ENDBRANCH   9  11
ENDBRANCH   8   9
ENDBRANCH   6   8
BRANCH   6  13
ATOM     13  C   UNL     1       1.357  -1.920   0.953  1.00  0.00     0.324 CG0
ATOM     14  G   UNL     1       1.735  -0.911  -0.040  1.00  0.00     0.000 G0
ENDBRANCH   6  13
ENDBRANCH   5   6
ENDBRANCH   4   5
ENDBRANCH   2   4
BRANCH   2  15
ATOM     15  C   UNL     1      -3.525  -1.158   0.242  1.00  0.00     0.316 C 
BRANCH  15  16
ATOM     16  C   UNL     1      -4.290  -0.226   1.077  1.00  0.00     0.096 C 
ATOM     17  O   UNL     1      -5.047   0.604   0.539  1.00  0.00    -0.544 OA
ATOM     18  O   UNL     1      -4.358  -0.455   2.434  1.00  0.00    -0.544 OA
ENDBRANCH  15  16
ENDBRANCH   2  15
ENDBRANCH   1   2
BRANCH   1  19
ATOM     19  C   UNL     1      -1.472   1.552   0.577  1.00  0.00     0.324 C 
BRANCH  19  20
ATOM     20  N   UNL     1      -0.468   2.395  -0.077  1.00  0.00    -0.321 N 
ATOM     21  H   UNL     1      -0.103   3.107   0.555  1.00  0.00     0.348 HD
BRANCH  20  22
ATOM     22  C   UNL     1       0.581   1.599  -0.553  1.00  0.00     0.324 C 
BRANCH  22  23
ATOM     23  C   UNL     1       1.884   1.523   0.035  1.00  0.00     0.324 C 
BRANCH  23  24
ATOM     24  N   UNL     1       2.413   0.244   0.384  1.00  0.00    -0.321 N 
ATOM     25  H   UNL     1       3.170   0.127  -0.290  1.00  0.00     0.348 HD
BRANCH  24  26
ATOM     26  C   UNL     1       1.735  -0.911  -0.040  1.00  0.00     0.324 CG0
ATOM     27  G   UNL     1       1.357  -1.920   0.953  1.00  0.00     0.000 G0
ENDBRANCH  24  26
BRANCH  24  28
ATOM     28  C   UNL     1       3.094   0.222   1.618  1.00  0.00     0.316 C 
BRANCH  28  29
ATOM     29  C   UNL     1       4.555   0.453   1.421  1.00  0.00     0.096 C 
ATOM     30  O   UNL     1       5.012   0.237   0.262  1.00  0.00    -0.544 OA
ATOM     31  O   UNL     1       5.348   1.005   2.422  1.00  0.00    -0.544 OA
ENDBRANCH  28  29
ENDBRANCH  24  28
ENDBRANCH  23  24
ENDBRANCH  22  23
ENDBRANCH  20  22
BRANCH  20  32
ATOM     32  C   UNL     1      -1.159   2.910  -1.267  1.00  0.00     0.316 C 
BRANCH  32  33
ATOM     33  C   UNL     1      -0.315   4.053  -1.744  1.00  0.00     0.096 C 
ATOM     34  O   UNL     1       0.685   3.727  -2.450  1.00  0.00    -0.544 OA
ATOM     35  O   UNL     1      -1.044   5.165  -2.185  1.00  0.00    -0.544 OA
ENDBRANCH  32  33
ENDBRANCH  20  32
ENDBRANCH  19  20
ENDBRANCH   1  19
TORSDOF 9
