REMARK SMILES COc1c(N2C[C@@H]3CCC[NH2+][C@@H]3C2)c(F)cc2c(=O)c(C(=O)[O-])cn(C3CC3)c12
REMARK SMILES IDX 3 1 4 2 14 3 15 4 16 5 17 6 18 7 19 8 20 9 24 10 25 11 29 12
REMARK SMILES IDX 2 13 1 14 5 15 6 16 13 17 7 18 12 19 8 20 11 21 9 22 10 23
REMARK SMILES IDX 26 26 27 27 28 28 21 29 22 30 23 31
REMARK H PARENT 11 24 11 25
REMARK Flexibility Score: inf
ROOT
ATOM      1  C   UNL     1      -0.025   0.804  -0.283  1.00  0.00     0.169 A 
ATOM      2  C   UNL     1       0.903  -0.225  -0.395  1.00  0.00     0.118 A 
ATOM      3  C   UNL     1       0.619  -1.411   0.273  1.00  0.00     0.151 A 
ATOM      4  F   UNL     1       1.089  -2.528  -0.354  1.00  0.00    -0.205 F 
ATOM      5  C   UNL     1      -0.459  -1.440   1.153  1.00  0.00     0.056 A 
ATOM      6  C   UNL     1      -1.470  -0.484   1.091  1.00  0.00     0.053 A 
ATOM      7  C   UNL     1      -2.801  -0.797   1.339  1.00  0.00     0.198 A 
ATOM      8  O   UNL     1      -3.029  -1.729   2.131  1.00  0.00    -0.288 OA
ATOM      9  C   UNL     1      -3.839  -0.409   0.499  1.00  0.00     0.062 A 
ATOM     10  C   UNL     1      -3.571   0.733  -0.251  1.00  0.00     0.100 A 
ATOM     11  N   UNL     1      -2.321   1.259  -0.301  1.00  0.00    -0.340 N 
ATOM     12  C   UNL     1      -1.271   0.631   0.283  1.00  0.00     0.097 A 
ENDROOT
BRANCH   1  13
ATOM     13  O   UNL     1       0.335   2.104  -0.649  1.00  0.00    -0.492 OA
ATOM     14  C   UNL     1       0.916   2.733  -0.038  1.00  0.00     0.278 C 
ENDBRANCH   1  13
BRANCH   2  15
ATOM     15  N   UNL     1       2.258   0.049  -0.650  1.00  0.00    -0.360 N 
ATOM     16  C   UNL     1       3.162   0.518   0.403  1.00  0.00     0.126 C 
ATOM     17  C   UNL     1       3.231  -0.368  -1.565  1.00  0.00     0.182 C 
ATOM     18  C   UNL     1       3.523  -1.010   0.798  1.00  0.00     0.069 C 
ATOM     19  C   UNL     1       4.132  -1.446  -0.737  1.00  0.00     0.206 C 
ATOM     20  C   UNL     1       4.932  -0.739   1.549  1.00  0.00     0.017 C 
ATOM     21  N   UNL     1       5.422  -0.607  -0.801  1.00  0.00    -0.342 N 
ATOM     22  C   UNL     1       5.440   0.602   1.254  1.00  0.00     0.062 C 
ATOM     23  C   UNL     1       5.586   0.571  -0.265  1.00  0.00     0.260 C 
ATOM     24  H   UNL     1       6.147  -1.194  -0.389  1.00  0.00     0.346 HD
ATOM     25  H   UNL     1       5.423  -0.355  -1.790  1.00  0.00     0.346 HD
ENDBRANCH   2  15
BRANCH  11  26
ATOM     26  C   UNL     1      -2.049   2.493  -1.005  1.00  0.00     0.087 C 
ATOM     27  C   UNL     1      -3.157   3.477  -1.131  1.00  0.00     0.027 C 
ATOM     28  C   UNL     1      -2.599   2.741  -2.356  1.00  0.00     0.027 C 
ENDBRANCH  11  26
BRANCH   9  29
ATOM     29  C   UNL     1      -4.845  -1.372   0.018  1.00  0.00     0.077 C 
ATOM     30  O   UNL     1      -5.636  -1.803   0.911  1.00  0.00    -0.545 OA
ATOM     31  O   UNL     1      -4.474  -2.346  -0.919  1.00  0.00    -0.545 OA
ENDBRANCH   9  29
TORSDOF 4
