REMARK SMILES C[C@H](S)C(=O)NCC(=O)[O-]
REMARK SMILES IDX 4 1 5 2 6 3 2 5 1 6 3 7 7 9 8 10 9 11 10 12
REMARK H PARENT 6 4 3 8
REMARK Flexibility Score: inf
ROOT
ATOM      1  C   UNL     1      -0.769  -0.260   0.034  1.00  0.00     0.232 C 
ATOM      2  O   UNL     1      -1.012  -0.274  -1.189  1.00  0.00    -0.274 OA
ATOM      3  N   UNL     1       0.194   0.724   0.445  1.00  0.00    -0.350 N 
ATOM      4  H   UNL     1       0.093   1.152   1.325  1.00  0.00     0.163 HD
ENDROOT
BRANCH   1   5
ATOM      5  C   UNL     1      -1.967  -0.263   1.047  1.00  0.00     0.129 C 
ATOM      6  C   UNL     1      -2.862  -1.328   0.259  1.00  0.00     0.029 C 
BRANCH   5   7
ATOM      7  S   UNL     1      -2.819   1.266   0.264  1.00  0.00    -0.166 SA
ATOM      8  H   UNL     1      -2.889   1.105  -1.085  1.00  0.00     0.103 HD
ENDBRANCH   5   7
ENDBRANCH   1   5
BRANCH   3   9
ATOM      9  C   UNL     1       1.315   1.105  -0.405  1.00  0.00     0.168 C 
BRANCH   9  10
ATOM     10  C   UNL     1       2.365   0.071  -0.414  1.00  0.00     0.061 C 
ATOM     11  O   UNL     1       1.980  -1.126  -0.247  1.00  0.00    -0.548 OA
ATOM     12  O   UNL     1       3.574   0.397   0.207  1.00  0.00    -0.548 OA
ENDBRANCH   9  10
ENDBRANCH   3   9
TORSDOF 4
