REMARK SMILES [NH3+][C@@H](Cc1c[nH]cn1)C(=O)[O-]
REMARK SMILES IDX 3 1 2 2 1 3 9 7 10 8 11 9 4 10 5 11 8 12 6 13 7 14
REMARK H PARENT 1 4 1 5 1 6 6 15
REMARK Flexibility Score: inf
ROOT
ATOM      1  C   UNL     1       0.320  -0.214   0.800  1.00  0.00     0.129 C 
ENDROOT
BRANCH   1   2
ATOM      2  C   UNL     1       1.120   0.113  -0.602  1.00  0.00     0.233 C 
BRANCH   2   3
ATOM      3  N   UNL     1       1.279  -1.419  -0.947  1.00  0.00    -0.350 N 
ATOM      4  H   UNL     1       0.444  -1.747  -1.431  1.00  0.00     0.345 HD
ATOM      5  H   UNL     1       1.404  -1.951  -0.086  1.00  0.00     0.345 HD
ATOM      6  H   UNL     1       2.093  -1.550  -1.548  1.00  0.00     0.345 HD
ENDBRANCH   2   3
BRANCH   2   7
ATOM      7  C   UNL     1       2.570   0.190   0.103  1.00  0.00     0.099 C 
ATOM      8  O   UNL     1       2.781  -0.466   1.104  1.00  0.00    -0.544 OA
ATOM      9  O   UNL     1       3.025   1.502   0.038  1.00  0.00    -0.544 OA
ENDBRANCH   2   7
ENDBRANCH   1   2
BRANCH   1  10
ATOM     10  C   UNL     1      -1.112  -0.090   0.495  1.00  0.00     0.064 A 
ATOM     11  C   UNL     1      -2.052   0.211   1.468  1.00  0.00     0.107 A 
ATOM     12  N   UNL     1      -1.786  -0.501  -0.570  1.00  0.00    -0.242 NA
ATOM     13  N   UNL     1      -3.156   0.571   0.764  1.00  0.00    -0.351 N 
ATOM     14  C   UNL     1      -2.990   0.104  -0.489  1.00  0.00     0.196 A 
ATOM     15  H   UNL     1      -3.929   1.077   1.103  1.00  0.00     0.167 HD
ENDBRANCH   1  10
TORSDOF 4
