REMARK SMILES O=C([O-])CCCc1ccc(N(CCCl)CCCl)cc1
REMARK SMILES IDX 7 1 8 2 9 3 10 4 18 5 19 6 6 7 5 8 4 9 2 10 1 11 3 12 11 13
REMARK SMILES IDX 12 14 13 15 14 16 15 17 16 18 17 19
REMARK H PARENT
REMARK Flexibility Score: inf
ROOT
ATOM      1  C   UNL     1       1.086  -0.003  -1.423  1.00  0.00    -0.048 A 
ATOM      2  C   UNL     1       1.020   0.429  -0.134  1.00  0.00     0.006 A 
ATOM      3  C   UNL     1      -0.189   0.434   0.552  1.00  0.00     0.026 A 
ATOM      4  C   UNL     1      -1.386   0.222  -0.094  1.00  0.00     0.037 A 
ATOM      5  C   UNL     1      -1.332  -0.102  -1.431  1.00  0.00     0.026 A 
ATOM      6  C   UNL     1      -0.133  -0.160  -2.076  1.00  0.00     0.006 A 
ENDROOT
BRANCH   1   7
ATOM      7  C   UNL     1       2.263  -0.374  -2.193  1.00  0.00     0.036 C 
BRANCH   7   8
ATOM      8  C   UNL     1       3.580  -0.233  -1.547  1.00  0.00     0.011 C 
BRANCH   8   9
ATOM      9  C   UNL     1       3.605  -0.362  -0.057  1.00  0.00     0.053 C 
BRANCH   9  10
ATOM     10  C   UNL     1       4.965   0.049   0.411  1.00  0.00     0.041 C 
ATOM     11  O   UNL     1       5.583   0.925  -0.265  1.00  0.00    -0.550 OA
ATOM     12  O   UNL     1       5.783  -0.905   1.022  1.00  0.00    -0.550 OA
ENDBRANCH   9  10
ENDBRANCH   8   9
ENDBRANCH   7   8
ENDBRANCH   1   7
BRANCH   4  13
ATOM     13  N   UNL     1      -2.477  -0.294   0.679  1.00  0.00    -0.369 N 
BRANCH  13  14
ATOM     14  C   UNL     1      -3.857  -0.198   0.213  1.00  0.00     0.132 C 
BRANCH  14  15
ATOM     15  C   UNL     1      -4.224   1.202  -0.203  1.00  0.00     0.131 C 
ATOM     16  Cl  UNL     1      -5.420   1.170  -1.521  1.00  0.00    -0.125 Cl
ENDBRANCH  14  15
ENDBRANCH  13  14
BRANCH  13  17
ATOM     17  C   UNL     1      -2.251  -1.314   1.700  1.00  0.00     0.132 C 
BRANCH  17  18
ATOM     18  C   UNL     1      -2.429  -0.659   3.061  1.00  0.00     0.131 C 
ATOM     19  Cl  UNL     1      -4.186  -0.439   3.305  1.00  0.00    -0.125 Cl
ENDBRANCH  17  18
ENDBRANCH  13  17
ENDBRANCH   4  13
TORSDOF 9
