REMARK SMILES O=C(c1ccccc1)c1ccc2n1CC[C@@H]2C(=O)[O-]
REMARK SMILES IDX 16 1 15 2 14 3 13 4 9 5 10 6 11 7 12 8 17 9 18 10 19 11 2 12
REMARK SMILES IDX 1 13 3 14 4 15 8 16 5 17 7 18 6 19
REMARK H PARENT
REMARK Flexibility Score: inf
ROOT
ATOM      1  C   UNL     1      -3.020   0.654  -0.502  1.00  0.00     0.084 C 
ATOM      2  C   UNL     1      -2.423   1.747   0.567  1.00  0.00     0.038 C 
ATOM      3  C   UNL     1      -0.949   1.461   0.445  1.00  0.00     0.123 C 
ATOM      4  N   UNL     1      -0.860   0.074   0.020  1.00  0.00    -0.341 N 
ATOM      5  C   UNL     1       0.068  -0.863  -0.186  1.00  0.00     0.090 A 
ATOM      6  C   UNL     1      -0.569  -2.094  -0.082  1.00  0.00     0.032 A 
ATOM      7  C   UNL     1      -1.934  -1.844  -0.156  1.00  0.00     0.024 A 
ATOM      8  C   UNL     1      -2.071  -0.489   0.120  1.00  0.00     0.027 A 
ENDROOT
BRANCH   1   9
ATOM      9  C   UNL     1      -4.252   0.268   0.471  1.00  0.00     0.050 C 
ATOM     10  O   UNL     1      -4.710   0.726   0.579  1.00  0.00    -0.549 OA
ATOM     11  O   UNL     1      -4.643  -1.072   0.348  1.00  0.00    -0.549 OA
ENDBRANCH   1   9
BRANCH   5  12
ATOM     12  C   UNL     1       1.424  -0.699  -0.728  1.00  0.00     0.209 C 
ATOM     13  O   UNL     1       1.470  -0.310  -1.934  1.00  0.00    -0.287 OA
BRANCH  12  14
ATOM     14  C   UNL     1       2.553  -0.311   0.127  1.00  0.00     0.024 A 
ATOM     15  C   UNL     1       2.536   0.892   0.804  1.00  0.00     0.012 A 
ATOM     16  C   UNL     1       3.801  -0.811  -0.223  1.00  0.00     0.012 A 
ATOM     17  C   UNL     1       3.704   1.611   1.006  1.00  0.00     0.001 A 
ATOM     18  C   UNL     1       4.976  -0.145   0.102  1.00  0.00     0.001 A 
ATOM     19  C   UNL     1       4.898   1.204   0.423  1.00  0.00     0.000 A 
ENDBRANCH  12  14
ENDBRANCH   5  12
TORSDOF 3
