REMARK SMILES C[C@]1(Cn2ccnn2)[C@H](C(=O)[O-])N2C(=O)C[C@H]2S1(=O)=O
REMARK SMILES IDX 1 1 2 2 9 3 13 4 14 5 15 6 16 7 17 8 18 9 19 10 20 11 3 12
REMARK SMILES IDX 4 13 5 14 8 15 6 16 7 17 10 18 11 19 12 20
REMARK H PARENT
REMARK Flexibility Score: inf
ROOT
ATOM      1  C   UNL     1       0.503  -1.527  -1.278  1.00  0.00     0.033 C 
ATOM      2  C   UNL     1       0.102  -0.256  -0.731  1.00  0.00     0.117 C 
ATOM      3  C   UNL     1      -0.254  -0.345   0.864  1.00  0.00     0.155 C 
ATOM      4  N   UNL     1      -1.742   0.122   0.808  1.00  0.00    -0.315 N 
ATOM      5  C   UNL     1      -2.706   1.143   0.894  1.00  0.00     0.227 C 
ATOM      6  O   UNL     1      -2.966   2.107   1.676  1.00  0.00    -0.275 OA
ATOM      7  C   UNL     1      -3.479   0.680  -0.271  1.00  0.00     0.142 C 
ATOM      8  C   UNL     1      -2.351  -0.434  -0.455  1.00  0.00     0.215 C 
ATOM      9  S   UNL     1      -1.178   0.635  -1.457  1.00  0.00     0.181 S 
ATOM     10  O   UNL     1      -1.194   2.022  -0.990  1.00  0.00    -0.226 OA
ATOM     11  O   UNL     1      -1.381   0.368  -2.862  1.00  0.00    -0.226 OA
ENDROOT
BRANCH   2  12
ATOM     12  C   UNL     1       1.232   0.723  -0.732  1.00  0.00     0.171 C 
BRANCH  12  13
ATOM     13  N   UNL     1       2.472   0.250  -0.207  1.00  0.00    -0.251 N 
ATOM     14  C   UNL     1       3.618   0.834  -0.647  1.00  0.00     0.131 A 
ATOM     15  N   UNL     1       2.708  -0.040   1.065  1.00  0.00    -0.067 NA
ATOM     16  C   UNL     1       4.510   0.831   0.395  1.00  0.00     0.157 A 
ATOM     17  N   UNL     1       4.029  -0.119   1.234  1.00  0.00    -0.139 NA
ENDBRANCH  12  13
ENDBRANCH   2  12
BRANCH   3  18
ATOM     18  C   UNL     1      -0.615  -1.915   0.884  1.00  0.00     0.066 C 
ATOM     19  O   UNL     1       0.049  -2.511   1.775  1.00  0.00    -0.548 OA
ATOM     20  O   UNL     1      -1.356  -2.566   0.034  1.00  0.00    -0.548 OA
ENDBRANCH   3  18
TORSDOF 3
