REMARK SMILES CCC(CC)[C@@H](NC(C)=O)[C@@H]1[C@H](O)[C@@H](C(=O)[O-])C[C@H]1[NH+]=C(N)N
REMARK SMILES IDX 6 1 3 2 2 3 1 4 4 5 5 6 7 7 8 8 9 10 10 11 11 12 19 13 12 14
REMARK SMILES IDX 18 15 14 16 20 17 21 18 22 20 23 21 13 26 15 28 16 29 17 30
REMARK H PARENT 7 9 20 19 22 22 22 23 23 24 23 25 13 27
REMARK Flexibility Score: inf
ROOT
ATOM      1  C   UNL     1       1.270  -0.168  -0.506  1.00  0.00     0.094 C 
ENDROOT
BRANCH   1   2
ATOM      2  C   UNL     1       1.605   1.276   0.234  1.00  0.00     0.011 C 
BRANCH   2   3
ATOM      3  C   UNL     1       1.695   2.258  -0.937  1.00  0.00     0.002 C 
ATOM      4  C   UNL     1       2.935   2.963  -0.979  1.00  0.00     0.004 C 
ENDBRANCH   2   3
BRANCH   2   5
ATOM      5  C   UNL     1       3.062   1.175   0.668  1.00  0.00     0.002 C 
ATOM      6  C   UNL     1       3.909   0.568  -0.443  1.00  0.00     0.004 C 
ENDBRANCH   2   5
ENDBRANCH   1   2
BRANCH   1   7
ATOM      7  N   UNL     1       2.055  -1.019   0.585  1.00  0.00    -0.353 N 
ATOM      8  C   UNL     1       1.873  -2.433   0.431  1.00  0.00     0.217 C 
ATOM      9  H   UNL     1       2.608  -0.616   1.293  1.00  0.00     0.163 HD
ATOM     10  C   UNL     1       2.414  -3.286   1.539  1.00  0.00     0.114 C 
ATOM     11  O   UNL     1       2.167  -2.871  -0.727  1.00  0.00    -0.275 OA
ENDBRANCH   1   7
BRANCH   1  12
ATOM     12  C   UNL     1      -0.173  -0.397   0.359  1.00  0.00     0.078 C 
ATOM     13  C   UNL     1      -1.045   0.891  -0.266  1.00  0.00     0.153 C 
ATOM     14  C   UNL     1      -0.859  -1.530  -0.691  1.00  0.00     0.131 C 
ATOM     15  C   UNL     1      -2.344   0.107   0.431  1.00  0.00     0.054 C 
ATOM     16  C   UNL     1      -2.296  -0.626  -1.023  1.00  0.00     0.068 C 
BRANCH  13  17
ATOM     17  N   UNL     1      -0.801   1.746   1.056  1.00  0.00    -0.275 N 
ATOM     18  C   UNL     1      -1.726   2.638   1.215  1.00  0.00     0.339 C 
ATOM     19  H   UNL     1      -0.045   1.613   1.673  1.00  0.00     0.260 HD
ATOM     20  N   UNL     1      -2.262   3.294   0.061  1.00  0.00    -0.291 N 
ATOM     21  N   UNL     1      -1.778   3.317   2.434  1.00  0.00    -0.291 N 
ATOM     22  H   UNL     1      -2.242   2.845  -0.815  1.00  0.00     0.256 HD
ATOM     23  H   UNL     1      -2.651   4.195   0.143  1.00  0.00     0.256 HD
ATOM     24  H   UNL     1      -1.419   2.895   3.248  1.00  0.00     0.256 HD
ATOM     25  H   UNL     1      -2.174   4.217   2.479  1.00  0.00     0.256 HD
ENDBRANCH  13  17
BRANCH  14  26
ATOM     26  O   UNL     1      -0.265  -0.949  -1.979  1.00  0.00    -0.392 OA
ATOM     27  H   UNL     1      -0.412   0.009  -1.999  1.00  0.00     0.210 HD
ENDBRANCH  14  26
BRANCH  16  28
ATOM     28  C   UNL     1      -3.243  -1.864  -0.607  1.00  0.00     0.047 C 
ATOM     29  O   UNL     1      -3.068  -2.734  -1.520  1.00  0.00    -0.550 OA
ATOM     30  O   UNL     1      -3.124  -2.355   0.664  1.00  0.00    -0.550 OA
ENDBRANCH  16  28
ENDBRANCH   1  12
TORSDOF 8
