REMARK SMILES Cc1nc(-c2ccc(OCC(C)C)c(C#N)c2)sc1C(=O)[O-]
REMARK SMILES IDX 5 1 6 2 7 3 8 4 14 5 17 6 4 7 1 8 2 9 3 10 19 11 18 12 20 13
REMARK SMILES IDX 21 14 22 15 15 16 16 17 9 18 10 19 11 20 12 21 13 22
REMARK H PARENT
REMARK Flexibility Score: inf
ROOT
ATOM      1  C   UNL     1      -0.301  -0.577   0.713  1.00  0.00     0.012 A 
ATOM      2  C   UNL     1       0.453  -0.449   1.864  1.00  0.00     0.015 A 
ATOM      3  C   UNL     1       1.839  -0.418   1.774  1.00  0.00     0.048 A 
ATOM      4  C   UNL     1       2.457  -0.196   0.550  1.00  0.00     0.137 A 
ATOM      5  C   UNL     1       1.671   0.009  -0.571  1.00  0.00     0.095 A 
ATOM      6  C   UNL     1       0.364  -0.387  -0.493  1.00  0.00     0.034 A 
ENDROOT
BRANCH   1   7
ATOM      7  C   UNL     1      -1.757  -0.393   0.710  1.00  0.00     0.124 A 
ATOM      8  C   UNL     1      -4.287   1.976  -0.328  1.00  0.00     0.068 C 
ATOM      9  C   UNL     1      -3.597   0.726   0.128  1.00  0.00     0.058 A 
ATOM     10  N   UNL     1      -2.465   0.752   0.825  1.00  0.00    -0.241 NA
ATOM     11  C   UNL     1      -4.327  -0.434   0.370  1.00  0.00     0.073 A 
ATOM     12  S   UNL     1      -3.042  -1.532   0.688  1.00  0.00    -0.112 S 
BRANCH  11  13
ATOM     13  C   UNL     1      -5.743  -0.682   0.067  1.00  0.00     0.083 C 
ATOM     14  O   UNL     1      -6.256  -0.365  -1.047  1.00  0.00    -0.544 OA
ATOM     15  O   UNL     1      -6.538  -1.287   1.044  1.00  0.00    -0.544 OA
ENDBRANCH  11  13
ENDBRANCH   1   7
BRANCH   5  16
ATOM     16  C   UNL     1       2.247   0.644  -1.734  1.00  0.00     0.103 C 
ATOM     17  N   UNL     1       2.510   1.222  -2.705  1.00  0.00    -0.192 NA
ENDBRANCH   5  16
BRANCH   4  18
ATOM     18  O   UNL     1       3.810   0.082   0.430  1.00  0.00    -0.492 OA
BRANCH  18  19
ATOM     19  C   UNL     1       4.554  -0.387  -0.692  1.00  0.00     0.232 C 
BRANCH  19  20
ATOM     20  C   UNL     1       5.920   0.287  -0.639  1.00  0.00     0.020 C 
ATOM     21  C   UNL     1       6.695  -0.359   0.484  1.00  0.00     0.011 C 
ATOM     22  C   UNL     1       5.794   1.766  -0.350  1.00  0.00     0.011 C 
ENDBRANCH  19  20
ENDBRANCH  18  19
ENDBRANCH   4  18
TORSDOF 6
