REMARK SMILES COc1c(C)c2c(c(O)c1C/C=C(\C)CCC(=O)[O-])C(=O)OC2
REMARK SMILES IDX 12 1 13 2 14 3 11 4 10 5 3 6 4 7 5 8 6 9 8 10 7 11 23 12
REMARK SMILES IDX 20 13 22 14 21 15 2 16 1 17 9 18 15 20 16 21 17 22 18 23
REMARK SMILES IDX 19 24
REMARK H PARENT 9 19
REMARK Flexibility Score: inf
ROOT
ATOM      1  C   UNL     1       1.488  -1.016   0.998  1.00  0.00    -0.023 C 
ATOM      2  C   UNL     1       2.656  -1.174   0.362  1.00  0.00    -0.077 C 
ATOM      3  C   UNL     1       2.748  -2.380  -0.523  1.00  0.00     0.039 C 
ENDROOT
BRANCH   1   4
ATOM      4  C   UNL     1       0.277  -1.823   0.645  1.00  0.00     0.070 C 
BRANCH   4   5
ATOM      5  C   UNL     1      -0.866  -0.969   0.267  1.00  0.00     0.041 A 
ATOM      6  C   UNL     1      -1.382  -1.088  -1.014  1.00  0.00     0.129 A 
ATOM      7  C   UNL     1      -2.713  -0.756  -1.231  1.00  0.00    -0.001 A 
ATOM      8  C   UNL     1      -3.219  -0.840  -2.615  1.00  0.00     0.049 C 
ATOM      9  C   UNL     1      -3.398  -0.052  -0.249  1.00  0.00     0.014 A 
ATOM     10  C   UNL     1      -1.599  -0.315   1.246  1.00  0.00     0.137 A 
ATOM     11  C   UNL     1      -2.792   0.326   0.942  1.00  0.00     0.109 A 
ATOM     12  C   UNL     1      -4.700   0.684  -0.247  1.00  0.00     0.270 C 
ATOM     13  C   UNL     1      -3.457   1.540   1.430  1.00  0.00     0.342 C 
ATOM     14  O   UNL     1      -4.414   1.880   0.473  1.00  0.00    -0.457 OA
ATOM     15  O   UNL     1      -2.927   2.396   2.201  1.00  0.00    -0.246 OA
BRANCH   6  16
ATOM     16  O   UNL     1      -0.471  -1.169  -2.058  1.00  0.00    -0.496 OA
ATOM     17  C   UNL     1       0.021   0.047  -2.571  1.00  0.00     0.278 C 
ENDBRANCH   6  16
BRANCH  10  18
ATOM     18  O   UNL     1      -1.002   0.010   2.457  1.00  0.00    -0.507 OA
ATOM     19  H   UNL     1      -1.495   0.452   3.120  1.00  0.00     0.293 HD
ENDBRANCH  10  18
ENDBRANCH   4   5
ENDBRANCH   1   4
BRANCH   2  20
ATOM     20  C   UNL     1       3.464   0.055   0.069  1.00  0.00     0.036 C 
BRANCH  20  21
ATOM     21  C   UNL     1       4.872  -0.064   0.607  1.00  0.00     0.057 C 
BRANCH  21  22
ATOM     22  C   UNL     1       5.572   1.202   0.273  1.00  0.00     0.042 C 
ATOM     23  O   UNL     1       6.770   1.397   0.639  1.00  0.00    -0.550 OA
ATOM     24  O   UNL     1       5.071   2.111  -0.663  1.00  0.00    -0.550 OA
ENDBRANCH  21  22
ENDBRANCH  20  21
ENDBRANCH   2  20
TORSDOF 7
