REMARK SMILES CC1(C)S[C@@H]2[C@H](NC(=O)Cc3ccccc3)C(=O)N2[C@H]1C(=O)[O-]
REMARK SMILES IDX 7 1 8 2 9 3 6 5 1 6 2 7 3 8 4 9 20 10 5 11 19 12 17 13 18 14
REMARK SMILES IDX 21 15 22 16 23 17 10 18 11 19 12 20 16 21 13 22 15 23 14 24
REMARK H PARENT 7 4
REMARK Flexibility Score: inf
ROOT
ATOM      1  N   UNL     1       0.394  -1.349  -0.417  1.00  0.00    -0.341 N 
ATOM      2  C   UNL     1       1.792  -1.540  -0.443  1.00  0.00     0.225 C 
ATOM      3  O   UNL     1       2.355  -1.378  -1.560  1.00  0.00    -0.275 OA
ATOM      4  H   UNL     1      -0.265  -2.009  -0.101  1.00  0.00     0.164 HD
ENDROOT
BRANCH   1   5
ATOM      5  C   UNL     1       0.046   0.106  -0.980  1.00  0.00     0.205 C 
ATOM      6  C   UNL     1      -3.898  -0.574  -1.081  1.00  0.00     0.025 C 
ATOM      7  C   UNL     1      -3.636  -0.823  -0.500  1.00  0.00     0.038 C 
ATOM      8  C   UNL     1      -4.625  -1.543   0.392  1.00  0.00     0.025 C 
ATOM      9  S   UNL     1      -2.033  -1.669  -0.230  1.00  0.00    -0.125 SA
ATOM     10  C   UNL     1      -3.170   0.412   0.515  1.00  0.00     0.148 C 
ATOM     11  C   UNL     1      -1.583  -0.179  -1.349  1.00  0.00     0.176 C 
ATOM     12  N   UNL     1      -1.832   0.796  -0.240  1.00  0.00    -0.317 N 
ATOM     13  C   UNL     1      -0.559   0.636   0.429  1.00  0.00     0.249 C 
ATOM     14  O   UNL     1       0.202   1.465   1.021  1.00  0.00    -0.272 OA
BRANCH  10  15
ATOM     15  C   UNL     1      -4.118   1.486  -0.285  1.00  0.00     0.065 C 
ATOM     16  O   UNL     1      -4.893   1.951   0.611  1.00  0.00    -0.548 OA
ATOM     17  O   UNL     1      -3.518   2.419  -1.059  1.00  0.00    -0.548 OA
ENDBRANCH  10  15
ENDBRANCH   1   5
BRANCH   2  18
ATOM     18  C   UNL     1       2.628  -1.881   0.747  1.00  0.00     0.135 C 
BRANCH  18  19
ATOM     19  C   UNL     1       3.689  -0.825   0.806  1.00  0.00    -0.039 A 
ATOM     20  C   UNL     1       3.277   0.444   1.192  1.00  0.00     0.004 A 
ATOM     21  C   UNL     1       4.758  -0.960  -0.066  1.00  0.00     0.004 A 
ATOM     22  C   UNL     1       4.050   1.530   0.829  1.00  0.00     0.000 A 
ATOM     23  C   UNL     1       5.511   0.121  -0.463  1.00  0.00     0.000 A 
ATOM     24  C   UNL     1       5.162   1.355   0.023  1.00  0.00     0.000 A 
ENDBRANCH  18  19
ENDBRANCH   2  18
TORSDOF 4
