REMARK SMILES NC(=O)N[C@@H](CCC(=O)[O-])C(=O)[O-]
REMARK SMILES IDX 6 1 5 2 4 3 1 4 2 5 3 8 11 10 12 11 13 12 7 13 8 14 9 15
REMARK SMILES IDX 10 16
REMARK H PARENT 1 6 1 7 4 9
REMARK Flexibility Score: inf
ROOT
ATOM      1  C   UNL     1       0.029  -0.342  -1.091  1.00  0.00     0.037 C 
ENDROOT
BRANCH   1   2
ATOM      2  C   UNL     1      -0.020  -0.044   0.559  1.00  0.00     0.130 C 
BRANCH   2   3
ATOM      3  N   UNL     1       1.583  -0.021   0.656  1.00  0.00    -0.330 N 
ATOM      4  N   UNL     1       3.038   1.889   0.188  1.00  0.00    -0.352 N 
ATOM      5  C   UNL     1       2.144   0.999  -0.182  1.00  0.00     0.312 C 
ATOM      6  H   UNL     1       3.367   2.554  -0.459  1.00  0.00     0.161 HD
ATOM      7  H   UNL     1       3.378   1.889   1.112  1.00  0.00     0.161 HD
ATOM      8  O   UNL     1       1.787   0.958  -1.383  1.00  0.00    -0.249 OA
ATOM      9  H   UNL     1       2.114  -0.629   1.220  1.00  0.00     0.166 HD
ENDBRANCH   2   3
BRANCH   2  10
ATOM     10  C   UNL     1      -0.098  -1.643   0.922  1.00  0.00     0.064 C 
ATOM     11  O   UNL     1       0.697  -2.368   0.320  1.00  0.00    -0.548 OA
ATOM     12  O   UNL     1      -0.432  -1.773   2.271  1.00  0.00    -0.548 OA
ENDBRANCH   2  10
ENDBRANCH   1   2
BRANCH   1  13
ATOM     13  C   UNL     1      -1.230   0.319  -1.609  1.00  0.00     0.055 C 
BRANCH  13  14
ATOM     14  C   UNL     1      -2.222   0.545  -0.535  1.00  0.00     0.041 C 
ATOM     15  O   UNL     1      -2.788  -0.386   0.070  1.00  0.00    -0.550 OA
ATOM     16  O   UNL     1      -2.489   1.867  -0.186  1.00  0.00    -0.550 OA
ENDBRANCH  13  14
ENDBRANCH   1  13
TORSDOF 5
