REMARK SMILES C[C@H](CCC(=O)[O-])[C@@H]1CC[C@H]2[C@@H]3CC[C@H]4C[C@@H](O)CC[C@]4(C)[C@H]3C[C@@H](O)[C@@]21C
REMARK SMILES IDX 1 1 2 2 3 3 4 4 5 5 6 6 7 7 8 8 9 9 27 10 10 11 11 12 25 13
REMARK SMILES IDX 28 14 12 15 24 16 13 17 23 18 14 19 21 20 15 21 20 22 22 23
REMARK SMILES IDX 16 24 19 25 17 26 26 27 18 29
REMARK H PARENT 26 28 18 30
REMARK Flexibility Score: inf
ROOT
ATOM      1  C   UNL     1       4.156  -0.896  -0.074  1.00  0.00     0.008 C 
ATOM      2  C   UNL     1       2.848  -0.099  -0.558  1.00  0.00    -0.010 C 
ENDROOT
BRANCH   2   3
ATOM      3  C   UNL     1       3.602   1.313  -0.739  1.00  0.00     0.009 C 
BRANCH   3   4
ATOM      4  C   UNL     1       4.831   1.050  -1.556  1.00  0.00     0.053 C 
BRANCH   4   5
ATOM      5  C   UNL     1       5.971   0.969  -0.600  1.00  0.00     0.041 C 
ATOM      6  O   UNL     1       5.922   1.546   0.534  1.00  0.00    -0.550 OA
ATOM      7  O   UNL     1       6.854  -0.105  -0.786  1.00  0.00    -0.550 OA
ENDBRANCH   4   5
ENDBRANCH   3   4
ENDBRANCH   2   3
BRANCH   2   8
ATOM      8  C   UNL     1       2.429   0.254   1.050  1.00  0.00     0.001 C 
ATOM      9  C   UNL     1       2.384  -1.341   1.358  1.00  0.00     0.005 C 
ATOM     10  C   UNL     1       0.847   0.162   1.019  1.00  0.00    -0.000 C 
ATOM     11  C   UNL     1       1.406  -1.884   0.375  1.00  0.00     0.005 C 
ATOM     12  C   UNL     1       0.726  -0.603  -0.350  1.00  0.00     0.001 C 
ATOM     13  C   UNL     1       0.154   1.591   0.912  1.00  0.00     0.121 C 
ATOM     14  C   UNL     1       0.369  -0.619   2.223  1.00  0.00     0.015 C 
ATOM     15  C   UNL     1      -0.853  -1.105  -0.067  1.00  0.00    -0.004 C 
ATOM     16  C   UNL     1      -1.315   0.885   1.260  1.00  0.00     0.036 C 
ATOM     17  C   UNL     1      -1.086  -1.428  -1.620  1.00  0.00     0.004 C 
ATOM     18  C   UNL     1      -1.472   0.443  -0.294  1.00  0.00     0.001 C 
ATOM     19  C   UNL     1      -2.471  -1.444  -2.005  1.00  0.00     0.004 C 
ATOM     20  C   UNL     1      -2.999  -0.038  -0.172  1.00  0.00    -0.026 C 
ATOM     21  C   UNL     1      -3.222  -0.021  -1.788  1.00  0.00    -0.002 C 
ATOM     22  C   UNL     1      -3.850   1.045   0.368  1.00  0.00     0.010 C 
ATOM     23  C   UNL     1      -3.223  -1.355   0.367  1.00  0.00     0.012 C 
ATOM     24  C   UNL     1      -4.671  -0.751  -1.677  1.00  0.00     0.036 C 
ATOM     25  C   UNL     1      -5.264   0.454   0.295  1.00  0.00     0.032 C 
ATOM     26  C   UNL     1      -5.648   0.514  -1.306  1.00  0.00     0.114 C 
BRANCH  13  27
ATOM     27  O   UNL     1       0.414   1.866   2.385  1.00  0.00    -0.393 OA
ATOM     28  H   UNL     1       0.187   1.079   2.905  1.00  0.00     0.210 HD
ENDBRANCH  13  27
BRANCH  26  29
ATOM     29  O   UNL     1      -6.839  -0.405  -1.123  1.00  0.00    -0.393 OA
ATOM     30  H   UNL     1      -6.579  -1.167  -0.582  1.00  0.00     0.210 HD
ENDBRANCH  26  29
ENDBRANCH   2   8
TORSDOF 6
