REMARK SMILES CC(C)C(=O)O[C@H](C)OC(=O)NCC1(CC(=O)[O-])CCCCC1
REMARK SMILES IDX 10 1 11 2 12 3 9 5 7 6 8 7 6 8 4 9 5 10 2 11 1 12 3 13 13 14
REMARK SMILES IDX 14 15 19 16 23 17 20 18 22 19 21 20 15 21 16 22 17 23 18 24
REMARK H PARENT 12 4
REMARK Flexibility Score: inf
ROOT
ATOM      1  C   UNL     1      -0.262  -0.862   1.137  1.00  0.00     0.410 C 
ATOM      2  O   UNL     1      -0.587  -0.067   2.070  1.00  0.00    -0.224 OA
ATOM      3  N   UNL     1       1.122  -1.046   0.923  1.00  0.00    -0.321 N 
ATOM      4  H   UNL     1       1.423  -1.896   0.529  1.00  0.00     0.167 HD
ENDROOT
BRANCH   1   5
ATOM      5  O   UNL     1      -1.175  -0.978   0.080  1.00  0.00    -0.409 OA
BRANCH   5   6
ATOM      6  C   UNL     1      -2.641  -1.225   0.630  1.00  0.00     0.368 C 
ATOM      7  C   UNL     1      -2.605   0.230   1.500  1.00  0.00     0.102 C 
BRANCH   6   8
ATOM      8  O   UNL     1      -3.270  -0.499  -0.629  1.00  0.00    -0.425 OA
BRANCH   8   9
ATOM      9  C   UNL     1      -4.621  -0.781  -0.776  1.00  0.00     0.311 C 
ATOM     10  O   UNL     1      -4.954  -1.987  -0.655  1.00  0.00    -0.252 OA
BRANCH   9  11
ATOM     11  C   UNL     1      -5.589   0.289  -1.169  1.00  0.00     0.093 C 
ATOM     12  C   UNL     1      -5.680   0.476  -1.742  1.00  0.00     0.019 C 
ATOM     13  C   UNL     1      -6.053   1.023   0.082  1.00  0.00     0.019 C 
ENDBRANCH   9  11
ENDBRANCH   8   9
ENDBRANCH   6   8
ENDBRANCH   5   6
ENDBRANCH   1   5
BRANCH   3  14
ATOM     14  C   UNL     1       2.133  -0.044   1.254  1.00  0.00     0.126 C 
BRANCH  14  15
ATOM     15  C   UNL     1       2.831   0.269  -0.065  1.00  0.00    -0.007 C 
ATOM     16  C   UNL     1       3.969   1.230   0.098  1.00  0.00     0.009 C 
ATOM     17  C   UNL     1       1.854   0.754  -1.110  1.00  0.00     0.009 C 
ATOM     18  C   UNL     1       3.360   2.563   0.516  1.00  0.00     0.001 C 
ATOM     19  C   UNL     1       1.306   2.110  -0.697  1.00  0.00     0.001 C 
ATOM     20  C   UNL     1       2.449   3.091  -0.580  1.00  0.00     0.000 C 
BRANCH  15  21
ATOM     21  C   UNL     1       3.404  -1.032  -0.567  1.00  0.00     0.061 C 
BRANCH  21  22
ATOM     22  C   UNL     1       4.631  -1.341   0.211  1.00  0.00     0.042 C 
ATOM     23  O   UNL     1       5.725  -1.230  -0.406  1.00  0.00    -0.550 OA
ATOM     24  O   UNL     1       4.654  -0.943   1.552  1.00  0.00    -0.550 OA
ENDBRANCH  21  22
ENDBRANCH  15  21
ENDBRANCH  14  15
ENDBRANCH   3  14
TORSDOF 9
