REMARK SMILES O=C([O-])C[NH+]1CC[NH+](CC(=O)[O-])CC[NH+](CC(=O)[O-])CC[NH+](CC(=O)[O-])CC1
REMARK SMILES IDX 20 1 15 2 14 4 13 5 8 6 9 8 10 9 11 10 12 11 7 12 16 14
REMARK SMILES IDX 17 15 18 16 19 17 21 18 22 19 27 21 28 22 5 23 6 25 4 27
REMARK SMILES IDX 2 28 1 29 3 30 23 31 24 32 25 33 26 34
REMARK H PARENT 15 3 8 7 22 20 5 24
REMARK Flexibility Score: 50.00
ROOT
ATOM      1  C   UNL     1       2.357  -0.530  -0.006  1.00  0.00     0.324 C 
ENDROOT
BRANCH   1   2
ATOM      2  N   UNL     1       2.132   0.866  -0.277  1.00  0.00    -0.321 N 
ATOM      3  H   UNL     1       1.848   0.880  -1.256  1.00  0.00     0.348 HD
BRANCH   2   4
ATOM      4  C   UNL     1       1.068   1.437   0.523  1.00  0.00     0.324 C 
BRANCH   4   5
ATOM      5  C   UNL     1       0.395   2.487  -0.336  1.00  0.00     0.324 C 
BRANCH   5   6
ATOM      6  N   UNL     1      -0.910   2.853   0.132  1.00  0.00    -0.321 N 
ATOM      7  H   UNL     1      -1.302   3.456  -0.592  1.00  0.00     0.348 HD
BRANCH   6   8
ATOM      8  C   UNL     1      -0.842   3.642   1.341  1.00  0.00     0.316 C 
BRANCH   8   9
ATOM      9  C   UNL     1      -1.786   3.181   2.381  1.00  0.00     0.096 C 
ATOM     10  O   UNL     1      -1.812   1.969   2.743  1.00  0.00    -0.544 OA
ATOM     11  O   UNL     1      -2.529   4.126   3.088  1.00  0.00    -0.544 OA
ENDBRANCH   8   9
ENDBRANCH   6   8
BRANCH   6  12
ATOM     12  C   UNL     1      -1.851   1.778   0.194  1.00  0.00     0.324 CG0
ATOM     13  G   UNL     1      -1.434   0.568  -0.632  1.00  0.00     0.000 G0
ENDBRANCH   6  12
ENDBRANCH   5   6
ENDBRANCH   4   5
ENDBRANCH   2   4
BRANCH   2  14
ATOM     14  C   UNL     1       3.316   1.678  -0.140  1.00  0.00     0.316 C 
BRANCH  14  15
ATOM     15  C   UNL     1       4.454   1.113  -0.890  1.00  0.00     0.096 C 
ATOM     16  O   UNL     1       4.421   0.060  -1.556  1.00  0.00    -0.544 OA
ATOM     17  O   UNL     1       5.601   1.900  -1.021  1.00  0.00    -0.544 OA
ENDBRANCH  14  15
ENDBRANCH   2  14
ENDBRANCH   1   2
BRANCH   1  18
ATOM     18  C   UNL     1       1.683  -1.314  -1.126  1.00  0.00     0.324 C 
BRANCH  18  19
ATOM     19  N   UNL     1       0.740  -2.277  -0.625  1.00  0.00    -0.321 N 
ATOM     20  H   UNL     1       1.034  -3.188  -0.976  1.00  0.00     0.348 HD
BRANCH  19  21
ATOM     21  C   UNL     1      -0.576  -2.070  -1.157  1.00  0.00     0.324 C 
BRANCH  21  22
ATOM     22  C   UNL     1      -1.623  -1.792  -0.123  1.00  0.00     0.324 C 
BRANCH  22  23
ATOM     23  N   UNL     1      -2.242  -0.523  -0.209  1.00  0.00    -0.321 N 
ATOM     24  H   UNL     1      -2.311  -0.315   0.787  1.00  0.00     0.348 HD
BRANCH  23  25
ATOM     25  C   UNL     1      -1.434   0.568  -0.632  1.00  0.00     0.324 CG0
ATOM     26  G   UNL     1      -1.851   1.778   0.194  1.00  0.00     0.000 G0
ENDBRANCH  23  25
BRANCH  23  27
ATOM     27  C   UNL     1      -3.615  -0.474  -0.522  1.00  0.00     0.316 C 
BRANCH  27  28
ATOM     28  C   UNL     1      -4.022  -1.164  -1.757  1.00  0.00     0.096 C 
ATOM     29  O   UNL     1      -5.264  -1.162  -2.016  1.00  0.00    -0.544 OA
ATOM     30  O   UNL     1      -3.169  -1.557  -2.767  1.00  0.00    -0.544 OA
ENDBRANCH  27  28
ENDBRANCH  23  27
ENDBRANCH  22  23
ENDBRANCH  21  22
ENDBRANCH  19  21
BRANCH  19  31
ATOM     31  C   UNL     1       0.786  -2.427   0.802  1.00  0.00     0.316 C 
BRANCH  31  32
ATOM     32  C   UNL     1       1.410  -3.738   1.141  1.00  0.00     0.096 C 
ATOM     33  O   UNL     1       1.140  -4.803   0.512  1.00  0.00    -0.544 OA
ATOM     34  O   UNL     1       2.172  -3.827   2.303  1.00  0.00    -0.544 OA
ENDBRANCH  31  32
ENDBRANCH  19  31
ENDBRANCH  18  19
ENDBRANCH   1  18
TORSDOF 8
