REMARK SMILES C[C@@H](S)C(=O)NCC(=O)[O-]
REMARK SMILES IDX 4 1 5 2 6 3 2 5 1 6 3 7 7 9 8 10 9 11 10 12
REMARK H PARENT 6 4 3 8
REMARK Flexibility Score: inf
ROOT
ATOM      1  C   UNL     1       0.894  -0.370   0.273  1.00  0.00     0.232 C 
ATOM      2  O   UNL     1       0.302  -1.141   1.090  1.00  0.00    -0.274 OA
ATOM      3  N   UNL     1       0.115   0.678  -0.230  1.00  0.00    -0.350 N 
ATOM      4  H   UNL     1       0.364   1.623  -0.108  1.00  0.00     0.163 HD
ENDROOT
BRANCH   1   5
ATOM      5  C   UNL     1       2.373  -0.157   0.716  1.00  0.00     0.129 C 
ATOM      6  C   UNL     1       2.912  -1.461  -0.022  1.00  0.00     0.029 C 
BRANCH   5   7
ATOM      7  S   UNL     1       2.886   1.032  -0.685  1.00  0.00    -0.166 SA
ATOM      8  H   UNL     1       2.479   0.526  -1.881  1.00  0.00     0.103 HD
ENDBRANCH   5   7
ENDBRANCH   1   5
BRANCH   3   9
ATOM      9  C   UNL     1      -1.094   0.276  -0.947  1.00  0.00     0.168 C 
BRANCH   9  10
ATOM     10  C   UNL     1      -2.312   0.395  -0.117  1.00  0.00     0.061 C 
ATOM     11  O   UNL     1      -2.946   1.489  -0.237  1.00  0.00    -0.548 OA
ATOM     12  O   UNL     1      -3.130  -0.741  -0.086  1.00  0.00    -0.548 OA
ENDBRANCH   9  10
ENDBRANCH   3   9
TORSDOF 4
