REMARK SMILES C[N+](C)(C)C[C@H](O)CC(=O)[O-]
REMARK SMILES IDX 6 1 5 2 2 3 1 4 3 5 4 6 7 7 8 9 9 10 10 11 11 12
REMARK H PARENT 7 8
REMARK Flexibility Score: inf
ROOT
ATOM      1  C   UNL     1       0.207  -0.627  -0.715  1.00  0.00     0.175 C 
ENDROOT
BRANCH   1   2
ATOM      2  C   UNL     1      -1.107  -0.641   0.266  1.00  0.00     0.295 C 
BRANCH   2   3
ATOM      3  N   UNL     1      -2.035   0.309  -0.029  1.00  0.00    -0.329 N 
ATOM      4  C   UNL     1      -1.914   0.776   0.638  1.00  0.00     0.334 C 
ATOM      5  C   UNL     1      -3.337  -0.304  -0.294  1.00  0.00     0.334 C 
ATOM      6  C   UNL     1      -1.875   1.398  -0.940  1.00  0.00     0.334 C 
ENDBRANCH   2   3
ENDBRANCH   1   2
BRANCH   1   7
ATOM      7  O   UNL     1       0.494  -2.097  -0.399  1.00  0.00    -0.387 OA
ATOM      8  H   UNL     1       0.424  -2.242   0.557  1.00  0.00     0.211 HD
ENDBRANCH   1   7
BRANCH   1   9
ATOM      9  C   UNL     1       1.194  -0.126   0.521  1.00  0.00     0.090 C 
BRANCH   9  10
ATOM     10  C   UNL     1       2.387   0.294  -0.255  1.00  0.00     0.044 C 
ATOM     11  O   UNL     1       3.216  -0.595  -0.558  1.00  0.00    -0.550 OA
ATOM     12  O   UNL     1       2.769   1.613  -0.374  1.00  0.00    -0.550 OA
ENDBRANCH   9  10
ENDBRANCH   1   9
TORSDOF 5
