REMARK SMILES COc1c(N2CC[NH2+][C@H](C)C2)c(F)cc2c(=O)c(C(=O)[O-])cn(C3CC3)c12
REMARK SMILES IDX 3 1 4 2 12 3 13 4 14 5 15 6 16 7 17 8 18 9 22 10 23 11 27 12
REMARK SMILES IDX 2 13 1 14 5 15 6 16 11 17 7 18 9 19 8 20 10 21 24 24 25 25
REMARK SMILES IDX 26 26 19 27 20 28 21 29
REMARK H PARENT 8 22 8 23
REMARK Flexibility Score: inf
ROOT
ATOM      1  C   UNL     1       0.378   0.442   0.459  1.00  0.00     0.169 A 
ATOM      2  C   UNL     1       1.492   0.485  -0.349  1.00  0.00     0.118 A 
ATOM      3  C   UNL     1       1.280   0.403  -1.719  1.00  0.00     0.151 A 
ATOM      4  F   UNL     1       2.357   0.542  -2.526  1.00  0.00    -0.205 F 
ATOM      5  C   UNL     1       0.016   0.139  -2.233  1.00  0.00     0.056 A 
ATOM      6  C   UNL     1      -1.039  -0.032  -1.366  1.00  0.00     0.053 A 
ATOM      7  C   UNL     1      -2.308  -0.239  -1.876  1.00  0.00     0.198 A 
ATOM      8  O   UNL     1      -2.577  -0.043  -3.100  1.00  0.00    -0.288 OA
ATOM      9  C   UNL     1      -3.365  -0.220  -1.003  1.00  0.00     0.062 A 
ATOM     10  C   UNL     1      -3.105  -0.261   0.354  1.00  0.00     0.100 A 
ATOM     11  N   UNL     1      -1.893  -0.017   0.880  1.00  0.00    -0.340 N 
ATOM     12  C   UNL     1      -0.903   0.238  -0.010  1.00  0.00     0.097 A 
ENDROOT
BRANCH   1  13
ATOM     13  O   UNL     1       0.538   0.858   1.785  1.00  0.00    -0.492 OA
ATOM     14  C   UNL     1       0.806   1.650   2.139  1.00  0.00     0.278 C 
ENDBRANCH   1  13
BRANCH   2  15
ATOM     15  N   UNL     1       2.742   0.047   0.194  1.00  0.00    -0.354 N 
ATOM     16  C   UNL     1       2.850  -1.373   0.550  1.00  0.00     0.178 C 
ATOM     17  C   UNL     1       3.584   0.861   1.015  1.00  0.00     0.181 C 
ATOM     18  C   UNL     1       4.308  -1.444   1.014  1.00  0.00     0.282 C 
ATOM     19  C   UNL     1       5.111   0.779   0.434  1.00  0.00     0.198 C 
ATOM     20  N   UNL     1       5.033  -0.730   0.013  1.00  0.00    -0.341 N 
ATOM     21  C   UNL     1       5.714   0.402   1.914  1.00  0.00     0.077 C 
ATOM     22  H   UNL     1       4.554  -0.812  -0.884  1.00  0.00     0.346 HD
ATOM     23  H   UNL     1       5.973  -1.116  -0.080  1.00  0.00     0.346 HD
ENDBRANCH   2  15
BRANCH  11  24
ATOM     24  C   UNL     1      -1.490  -0.436   2.199  1.00  0.00     0.087 C 
ATOM     25  C   UNL     1      -1.569  -1.956   2.381  1.00  0.00     0.027 C 
ATOM     26  C   UNL     1      -2.431  -0.984   3.185  1.00  0.00     0.027 C 
ENDBRANCH  11  24
BRANCH   9  27
ATOM     27  C   UNL     1      -4.742  -0.095  -1.446  1.00  0.00     0.077 C 
ATOM     28  O   UNL     1      -5.630  -0.868  -0.997  1.00  0.00    -0.545 OA
ATOM     29  O   UNL     1      -5.156   1.155  -1.890  1.00  0.00    -0.545 OA
ENDBRANCH   9  27
TORSDOF 4
