REMARK SMILES C=CC1=C(C(=O)[O-])N2C(=O)[C@@H](NC(=O)/C(=N\OCC(=O)[O-])c3csc(N)n3)[C@H]2SC1
REMARK SMILES IDX 15 1 16 2 13 3 12 4 14 6 11 7 3 8 4 9 30 10 8 11 29 12 9 13
REMARK SMILES IDX 28 14 10 15 2 16 1 17 5 18 6 19 7 20 22 21 23 22 27 23 24 24
REMARK SMILES IDX 25 25 26 26 17 29 18 30 19 31 20 32 21 33
REMARK H PARENT 12 5 26 27 26 28
REMARK Flexibility Score: inf
ROOT
ATOM      1  C   UNL     1       2.707  -0.198   0.064  1.00  0.00     0.193 C 
ATOM      2  N   UNL     1       3.389   0.455   0.960  1.00  0.00    -0.078 NA
ENDROOT
BRANCH   1   3
ATOM      3  C   UNL     1       1.387  -0.690   0.478  1.00  0.00     0.276 C 
ATOM      4  N   UNL     1       0.191  -0.502  -0.250  1.00  0.00    -0.336 N 
ATOM      5  H   UNL     1      -0.017  -0.963  -1.095  1.00  0.00     0.164 HD
ATOM      6  O   UNL     1       1.226  -1.035   1.689  1.00  0.00    -0.267 OA
BRANCH   4   7
ATOM      7  C   UNL     1      -0.794   0.554   0.463  1.00  0.00     0.206 C 
ATOM      8  C   UNL     1      -4.583  -0.604  -1.019  1.00  0.00    -0.013 C 
ATOM      9  C   UNL     1      -4.207  -0.062   0.140  1.00  0.00     0.072 C 
ATOM     10  C   UNL     1      -3.717  -1.650  -1.656  1.00  0.00     0.109 C 
ATOM     11  N   UNL     1      -2.828   0.092   0.507  1.00  0.00    -0.293 N 
ATOM     12  S   UNL     1      -1.954  -1.348  -1.283  1.00  0.00    -0.129 SA
ATOM     13  C   UNL     1      -1.730  -0.586   1.169  1.00  0.00     0.253 C 
ATOM     14  C   UNL     1      -2.015   0.480  -0.724  1.00  0.00     0.181 C 
ATOM     15  O   UNL     1      -1.626  -0.857   2.384  1.00  0.00    -0.272 OA
BRANCH   8  16
ATOM     16  C   UNL     1      -5.914  -0.281  -1.478  1.00  0.00    -0.001 C 
ATOM     17  C   UNL     1      -6.070  -0.102  -2.790  1.00  0.00     0.009 C 
ENDBRANCH   8  16
BRANCH   9  18
ATOM     18  C   UNL     1      -5.162   0.152   1.235  1.00  0.00     0.088 C 
ATOM     19  O   UNL     1      -4.841   0.878   2.224  1.00  0.00    -0.543 OA
ATOM     20  O   UNL     1      -6.519   0.244   0.903  1.00  0.00    -0.543 OA
ENDBRANCH   9  18
ENDBRANCH   4   7
ENDBRANCH   1   3
BRANCH   1  21
ATOM     21  C   UNL     1       3.340  -0.650  -1.185  1.00  0.00     0.111 A 
ATOM     22  C   UNL     1       2.704  -0.632  -2.424  1.00  0.00     0.099 A 
ATOM     23  N   UNL     1       4.676  -0.797  -1.348  1.00  0.00    -0.218 NA
ATOM     24  S   UNL     1       3.715  -1.716  -3.298  1.00  0.00    -0.105 S 
ATOM     25  C   UNL     1       4.943  -1.886  -2.110  1.00  0.00     0.180 A 
BRANCH  25  26
ATOM     26  N   UNL     1       6.070  -2.770  -2.033  1.00  0.00    -0.375 N 
ATOM     27  H   UNL     1       6.142  -3.531  -2.653  1.00  0.00     0.159 HD
ATOM     28  H   UNL     1       6.771  -2.616  -1.359  1.00  0.00     0.159 HD
ENDBRANCH  25  26
ENDBRANCH   1  21
BRANCH   2  29
ATOM     29  O   UNL     1       2.687   1.091   1.962  1.00  0.00    -0.389 OA
BRANCH  29  30
ATOM     30  C   UNL     1       2.444   2.480   1.785  1.00  0.00     0.316 C 
BRANCH  30  31
ATOM     31  C   UNL     1       3.765   3.182   1.804  1.00  0.00     0.082 C 
ATOM     32  O   UNL     1       4.568   2.988   0.842  1.00  0.00    -0.546 OA
ATOM     33  O   UNL     1       4.149   3.771   2.992  1.00  0.00    -0.546 OA
ENDBRANCH  30  31
ENDBRANCH  29  30
ENDBRANCH   2  29
TORSDOF 9
