REMARK SMILES COc1cc2c(cc1Cc1cccc(Cl)c1F)c(=O)c(C(=O)[O-])cn2[C@H](CO)C(C)C
REMARK SMILES IDX 3 1 4 2 5 3 6 4 7 5 8 6 18 7 19 8 20 9 24 10 25 11 2 12 1 13
REMARK SMILES IDX 9 14 10 15 11 16 16 17 12 18 14 19 17 20 13 21 15 22 26 23
REMARK SMILES IDX 27 24 28 25 29 27 30 28 31 29 21 30 22 31 23 32
REMARK H PARENT 28 26
REMARK Flexibility Score: inf
ROOT
ATOM      1  C   UNL     1       0.502   1.822   0.076  1.00  0.00     0.124 A 
ATOM      2  C   UNL     1      -0.807   1.508   0.428  1.00  0.00     0.073 A 
ATOM      3  C   UNL     1      -1.352   0.278   0.107  1.00  0.00     0.056 A 
ATOM      4  C   UNL     1      -0.438  -0.764   0.003  1.00  0.00     0.047 A 
ATOM      5  C   UNL     1       0.884  -0.487  -0.322  1.00  0.00     0.022 A 
ATOM      6  C   UNL     1       1.314   0.830  -0.437  1.00  0.00    -0.001 A 
ATOM      7  C   UNL     1      -0.913  -2.024  -0.243  1.00  0.00     0.198 A 
ATOM      8  O   UNL     1      -0.118  -2.985  -0.262  1.00  0.00    -0.288 OA
ATOM      9  C   UNL     1      -2.265  -2.186  -0.510  1.00  0.00     0.062 A 
ATOM     10  C   UNL     1      -3.078  -1.166  -0.078  1.00  0.00     0.100 A 
ATOM     11  N   UNL     1      -2.684   0.106  -0.106  1.00  0.00    -0.341 N 
ENDROOT
BRANCH   1  12
ATOM     12  O   UNL     1       1.052   3.049   0.442  1.00  0.00    -0.496 OA
ATOM     13  C   UNL     1       0.952   4.127  -0.278  1.00  0.00     0.278 C 
ENDBRANCH   1  12
BRANCH   6  14
ATOM     14  C   UNL     1       2.572   1.189  -1.139  1.00  0.00     0.078 C 
BRANCH  14  15
ATOM     15  C   UNL     1       3.722   0.869  -0.240  1.00  0.00    -0.006 A 
ATOM     16  C   UNL     1       3.873   1.686   0.870  1.00  0.00     0.007 A 
ATOM     17  C   UNL     1       4.334  -0.368  -0.247  1.00  0.00     0.145 A 
ATOM     18  C   UNL     1       4.996   1.479   1.662  1.00  0.00     0.002 A 
ATOM     19  C   UNL     1       5.332  -0.673   0.665  1.00  0.00     0.077 A 
ATOM     20  F   UNL     1       4.056  -1.240  -1.235  1.00  0.00    -0.205 F 
ATOM     21  C   UNL     1       5.733   0.317   1.522  1.00  0.00     0.023 A 
ATOM     22  Cl  UNL     1       6.153  -2.210   0.587  1.00  0.00    -0.081 Cl
ENDBRANCH  14  15
ENDBRANCH   6  14
BRANCH  11  23
ATOM     23  C   UNL     1      -3.429   1.079   0.914  1.00  0.00     0.115 C 
BRANCH  23  24
ATOM     24  C   UNL     1      -4.928   0.391   0.666  1.00  0.00     0.181 C 
BRANCH  24  25
ATOM     25  O   UNL     1      -4.865  -0.593   1.667  1.00  0.00    -0.394 OA
ATOM     26  H   UNL     1      -4.077  -1.141   1.532  1.00  0.00     0.210 HD
ENDBRANCH  24  25
ENDBRANCH  23  24
BRANCH  23  27
ATOM     27  C   UNL     1      -3.604   2.243  -0.258  1.00  0.00     0.008 C 
ATOM     28  C   UNL     1      -4.778   1.978  -1.070  1.00  0.00     0.009 C 
ATOM     29  C   UNL     1      -3.549   3.545   0.472  1.00  0.00     0.009 C 
ENDBRANCH  23  27
ENDBRANCH  11  23
BRANCH   9  30
ATOM     30  C   UNL     1      -2.820  -3.509  -0.757  1.00  0.00     0.077 C 
ATOM     31  O   UNL     1      -3.891  -3.810  -0.201  1.00  0.00    -0.545 OA
ATOM     32  O   UNL     1      -1.956  -4.482  -1.199  1.00  0.00    -0.545 OA
ENDBRANCH   9  30
TORSDOF 8
