REMARK SMILES CCOC(=O)[C@H](CCc1ccccc1)[NH2+][C@@H](C)C(=O)N1CCC[C@H]1C(=O)[O-]
REMARK SMILES IDX 15 1 6 4 4 5 5 6 3 7 2 8 1 9 7 10 8 11 9 12 10 13 14 14
REMARK SMILES IDX 11 15 13 16 12 17 16 18 17 19 18 20 19 21 20 22 21 23 24 24
REMARK SMILES IDX 22 25 23 26 25 27 26 28 27 29
REMARK H PARENT 15 2 15 3
REMARK Flexibility Score: inf
ROOT
ATOM      1  N   UNL     1       0.235   0.453  -1.186  1.00  0.00    -0.325 N 
ATOM      2  H   UNL     1       0.747   0.529  -2.065  1.00  0.00     0.347 HD
ATOM      3  H   UNL     1       0.023  -0.529  -1.007  1.00  0.00     0.347 HD
ENDROOT
BRANCH   1   4
ATOM      4  C   UNL     1      -1.091   1.270  -1.279  1.00  0.00     0.294 C 
BRANCH   4   5
ATOM      5  C   UNL     1      -0.840   2.347  -0.085  1.00  0.00     0.364 C 
ATOM      6  O   UNL     1      -0.383   3.451  -0.513  1.00  0.00    -0.245 OA
BRANCH   5   7
ATOM      7  O   UNL     1      -2.039   2.526   0.605  1.00  0.00    -0.462 OA
BRANCH   7   8
ATOM      8  C   UNL     1      -2.698   3.649   0.999  1.00  0.00     0.229 C 
ATOM      9  C   UNL     1      -2.387   4.892   0.305  1.00  0.00     0.049 C 
ENDBRANCH   7   8
ENDBRANCH   5   7
ENDBRANCH   4   5
BRANCH   4  10
ATOM     10  C   UNL     1      -1.872   0.183  -0.310  1.00  0.00     0.082 C 
BRANCH  10  11
ATOM     11  C   UNL     1      -2.196  -0.994  -1.223  1.00  0.00     0.042 C 
BRANCH  11  12
ATOM     12  C   UNL     1      -3.425  -1.500  -0.541  1.00  0.00    -0.048 A 
ATOM     13  C   UNL     1      -4.455  -0.592  -0.460  1.00  0.00     0.004 A 
ATOM     14  C   UNL     1      -3.511  -2.661   0.177  1.00  0.00     0.004 A 
ATOM     15  C   UNL     1      -5.758  -1.019  -0.234  1.00  0.00     0.000 A 
ATOM     16  C   UNL     1      -4.803  -3.172   0.286  1.00  0.00     0.000 A 
ATOM     17  C   UNL     1      -5.875  -2.337   0.111  1.00  0.00     0.000 A 
ENDBRANCH  11  12
ENDBRANCH  10  11
ENDBRANCH   4  10
ENDBRANCH   1   4
BRANCH   1  18
ATOM     18  C   UNL     1       1.106   1.026  -0.020  1.00  0.00     0.270 C 
ATOM     19  C   UNL     1       0.185   0.459   1.243  1.00  0.00     0.086 C 
BRANCH  18  20
ATOM     20  C   UNL     1       1.981  -0.321   0.019  1.00  0.00     0.281 C 
ATOM     21  O   UNL     1       1.294  -1.363   0.155  1.00  0.00    -0.268 OA
BRANCH  20  22
ATOM     22  N   UNL     1       3.292  -0.450  -0.390  1.00  0.00    -0.329 N 
ATOM     23  C   UNL     1       3.713  -1.718  -0.954  1.00  0.00     0.120 C 
ATOM     24  C   UNL     1       4.218  -0.233   0.880  1.00  0.00     0.131 C 
ATOM     25  C   UNL     1       3.505  -2.499   0.304  1.00  0.00     0.024 C 
ATOM     26  C   UNL     1       4.489  -1.839   1.147  1.00  0.00     0.033 C 
BRANCH  24  27
ATOM     27  C   UNL     1       5.567   0.017   0.023  1.00  0.00     0.064 C 
ATOM     28  O   UNL     1       5.989  -0.919  -0.664  1.00  0.00    -0.548 OA
ATOM     29  O   UNL     1       5.759   1.345  -0.352  1.00  0.00    -0.548 OA
ENDBRANCH  24  27
ENDBRANCH  20  22
ENDBRANCH  18  20
ENDBRANCH   1  18
TORSDOF 11
