REMARK SMILES CC(C)[C@H]1CC[C@@H](C(=O)N[C@H](Cc2ccccc2)C(=O)[O-])CC1
REMARK SMILES IDX 8 1 9 2 10 3 7 5 4 6 23 7 5 8 22 9 6 10 2 11 1 12 3 13 11 14
REMARK SMILES IDX 12 15 13 16 14 17 18 18 15 19 17 20 16 21 19 22 20 23 21 24
REMARK H PARENT 10 4
REMARK Flexibility Score: inf
ROOT
ATOM      1  C   UNL     1       0.301  -1.136   0.482  1.00  0.00     0.223 C 
ATOM      2  O   UNL     1      -0.405  -1.248   1.532  1.00  0.00    -0.275 OA
ATOM      3  N   UNL     1      -0.317  -1.246  -0.699  1.00  0.00    -0.348 N 
ATOM      4  H   UNL     1       0.237  -1.393  -1.500  1.00  0.00     0.164 HD
ENDROOT
BRANCH   1   5
ATOM      5  C   UNL     1       1.502  -0.058   0.719  1.00  0.00     0.078 C 
ATOM      6  C   UNL     1       3.772   0.913   0.600  1.00  0.00    -0.009 C 
ATOM      7  C   UNL     1       3.099   0.978  -0.912  1.00  0.00     0.004 C 
ATOM      8  C   UNL     1       3.914  -0.735   0.521  1.00  0.00     0.004 C 
ATOM      9  C   UNL     1       1.978  -0.039  -0.875  1.00  0.00     0.014 C 
ATOM     10  C   UNL     1       2.594  -1.259   1.073  1.00  0.00     0.014 C 
BRANCH   6  11
ATOM     11  C   UNL     1       5.291   1.133  -0.017  1.00  0.00    -0.014 C 
ATOM     12  C   UNL     1       5.342   2.282  -0.167  1.00  0.00     0.007 C 
ATOM     13  C   UNL     1       6.149   0.635   1.111  1.00  0.00     0.007 C 
ENDBRANCH   6  11
ENDBRANCH   1   5
BRANCH   3  14
ATOM     14  C   UNL     1      -1.903  -1.154  -0.890  1.00  0.00     0.132 C 
BRANCH  14  15
ATOM     15  C   UNL     1      -2.243  -0.649   0.678  1.00  0.00     0.066 C 
BRANCH  15  16
ATOM     16  C   UNL     1      -2.903   0.660   0.418  1.00  0.00    -0.046 A 
ATOM     17  C   UNL     1      -2.403   1.484  -0.565  1.00  0.00     0.004 A 
ATOM     18  C   UNL     1      -4.236   0.867   0.745  1.00  0.00     0.004 A 
ATOM     19  C   UNL     1      -2.993   2.682  -0.912  1.00  0.00     0.000 A 
ATOM     20  C   UNL     1      -4.920   1.969   0.271  1.00  0.00     0.000 A 
ATOM     21  C   UNL     1      -4.265   2.930  -0.468  1.00  0.00     0.000 A 
ENDBRANCH  15  16
ENDBRANCH  14  15
BRANCH  14  22
ATOM     22  C   UNL     1      -2.099  -2.737  -0.472  1.00  0.00     0.064 C 
ATOM     23  O   UNL     1      -1.804  -3.395  -1.520  1.00  0.00    -0.548 OA
ATOM     24  O   UNL     1      -3.451  -2.875  -0.120  1.00  0.00    -0.548 OA
ENDBRANCH  14  22
ENDBRANCH   3  14
TORSDOF 6
