REMARK SMILES C/C=C/C1=C(C(=O)[O-])N2C(=O)[C@@H](NC(=O)[C@H]([NH3+])c3ccc(O)cc3)[C@H]2SC1
REMARK SMILES IDX 13 1 14 2 15 3 12 5 4 6 5 7 27 8 9 9 26 10 10 11 25 12 11 13
REMARK SMILES IDX 3 14 1 15 2 16 6 17 7 18 8 19 16 20 17 21 18 25 19 26 24 27
REMARK SMILES IDX 20 28 23 29 21 30 22 31
REMARK H PARENT 13 4 17 22 17 23 17 24 22 32
REMARK Flexibility Score: inf
ROOT
ATOM      1  N   UNL     1       0.832  -0.787   0.504  1.00  0.00    -0.336 N 
ATOM      2  C   UNL     1       1.427   0.105  -0.367  1.00  0.00     0.283 C 
ATOM      3  O   UNL     1       1.629  -0.106  -1.540  1.00  0.00    -0.268 OA
ATOM      4  H   UNL     1       0.995  -0.749   1.474  1.00  0.00     0.164 HD
ENDROOT
BRANCH   1   5
ATOM      5  C   UNL     1      -0.129  -1.879  -0.138  1.00  0.00     0.205 C 
ATOM      6  C   UNL     1      -3.868  -0.005   0.935  1.00  0.00    -0.013 C 
ATOM      7  C   UNL     1      -3.493  -0.851  -0.021  1.00  0.00     0.072 C 
ATOM      8  C   UNL     1      -2.896   0.630   1.879  1.00  0.00     0.109 C 
ATOM      9  N   UNL     1      -2.151  -1.209  -0.322  1.00  0.00    -0.293 N 
ATOM     10  S   UNL     1      -1.190   0.215   1.455  1.00  0.00    -0.129 SA
ATOM     11  C   UNL     1      -0.972  -0.862  -1.087  1.00  0.00     0.253 C 
ATOM     12  C   UNL     1      -1.407  -1.610   0.941  1.00  0.00     0.181 C 
ATOM     13  O   UNL     1      -0.897  -1.101  -2.339  1.00  0.00    -0.272 OA
BRANCH   6  14
ATOM     14  C   UNL     1      -5.015   0.870   0.635  1.00  0.00     0.002 C 
ATOM     15  C   UNL     1      -5.554   3.015  -0.381  1.00  0.00     0.035 C 
ATOM     16  C   UNL     1      -4.708   2.107   0.242  1.00  0.00    -0.030 C 
ENDBRANCH   6  14
BRANCH   7  17
ATOM     17  C   UNL     1      -4.472  -1.296  -1.025  1.00  0.00     0.088 C 
ATOM     18  O   UNL     1      -4.975  -2.459  -0.943  1.00  0.00    -0.543 OA
ATOM     19  O   UNL     1      -5.354  -0.362  -1.586  1.00  0.00    -0.543 OA
ENDBRANCH   7  17
ENDBRANCH   1   5
BRANCH   2  20
ATOM     20  C   UNL     1       2.494   1.007   0.472  1.00  0.00     0.302 C 
BRANCH  20  21
ATOM     21  N   UNL     1       2.226   2.277  -0.465  1.00  0.00    -0.343 N 
ATOM     22  H   UNL     1       2.248   1.989  -1.443  1.00  0.00     0.345 HD
ATOM     23  H   UNL     1       2.947   2.979  -0.301  1.00  0.00     0.345 HD
ATOM     24  H   UNL     1       1.311   2.672  -0.248  1.00  0.00     0.345 HD
ENDBRANCH  20  21
BRANCH  20  25
ATOM     25  C   UNL     1       3.778   0.505  -0.422  1.00  0.00     0.019 A 
ATOM     26  C   UNL     1       4.267  -0.680   0.129  1.00  0.00     0.014 A 
ATOM     27  C   UNL     1       4.702   1.480  -0.653  1.00  0.00     0.014 A 
ATOM     28  C   UNL     1       5.638  -0.864   0.276  1.00  0.00     0.046 A 
ATOM     29  C   UNL     1       6.046   1.360  -0.388  1.00  0.00     0.046 A 
ATOM     30  C   UNL     1       6.518   0.211   0.235  1.00  0.00     0.115 A 
BRANCH  30  31
ATOM     31  O   UNL     1       7.526   0.290   1.203  1.00  0.00    -0.508 OA
ATOM     32  H   UNL     1       7.839  -0.490   1.618  1.00  0.00     0.293 HD
ENDBRANCH  30  31
ENDBRANCH  20  25
ENDBRANCH   2  20
TORSDOF 7
