REMARK SMILES CC1(C)S[C@@H]2[C@H](NC(=O)COc3ccccc3)C(=O)N2[C@H]1C(=O)[O-]
REMARK SMILES IDX 7 1 8 2 9 3 6 5 1 6 2 7 3 8 4 9 21 10 5 11 20 12 18 13 19 14
REMARK SMILES IDX 22 15 23 16 24 17 10 18 11 19 12 20 13 21 17 22 14 23 16 24
REMARK SMILES IDX 15 25
REMARK H PARENT 7 4
REMARK Flexibility Score: inf
ROOT
ATOM      1  N   UNL     1      -0.383  -0.957  -0.383  1.00  0.00    -0.339 N 
ATOM      2  C   UNL     1       0.871  -0.882   0.127  1.00  0.00     0.258 C 
ATOM      3  O   UNL     1       1.169   0.001   0.977  1.00  0.00    -0.271 OA
ATOM      4  H   UNL     1      -0.539  -1.414  -1.240  1.00  0.00     0.164 HD
ENDROOT
BRANCH   1   5
ATOM      5  C   UNL     1      -1.615  -0.300   0.411  1.00  0.00     0.205 C 
ATOM      6  C   UNL     1      -3.096  -1.014  -1.346  1.00  0.00     0.025 C 
ATOM      7  C   UNL     1      -2.974  -0.298  -1.183  1.00  0.00     0.038 C 
ATOM      8  C   UNL     1      -3.959   0.514  -1.900  1.00  0.00     0.025 C 
ATOM      9  S   UNL     1      -1.255   0.562  -1.364  1.00  0.00    -0.125 SA
ATOM     10  C   UNL     1      -3.181  -0.213   0.465  1.00  0.00     0.148 C 
ATOM     11  C   UNL     1      -0.945   1.032   0.713  1.00  0.00     0.176 C 
ATOM     12  N   UNL     1      -2.521   1.213   0.690  1.00  0.00    -0.317 N 
ATOM     13  C   UNL     1      -1.815   1.199  -0.470  1.00  0.00     0.249 C 
ATOM     14  O   UNL     1      -1.370   2.411  -0.558  1.00  0.00    -0.272 OA
BRANCH  10  15
ATOM     15  C   UNL     1      -4.677   0.344   0.384  1.00  0.00     0.065 C 
ATOM     16  O   UNL     1      -4.975   1.409   0.879  1.00  0.00    -0.548 OA
ATOM     17  O   UNL     1      -5.530  -0.690   0.115  1.00  0.00    -0.548 OA
ENDBRANCH  10  15
ENDBRANCH   1   5
BRANCH   2  18
ATOM     18  C   UNL     1       1.873  -1.355  -0.887  1.00  0.00     0.329 C 
BRANCH  18  19
ATOM     19  O   UNL     1       2.745  -0.244  -1.114  1.00  0.00    -0.484 OA
BRANCH  19  20
ATOM     20  C   UNL     1       3.900  -0.302  -0.326  1.00  0.00     0.120 A 
ATOM     21  C   UNL     1       4.479  -1.540  -0.077  1.00  0.00     0.046 A 
ATOM     22  C   UNL     1       4.715   0.793  -0.205  1.00  0.00     0.046 A 
ATOM     23  C   UNL     1       5.825  -1.707   0.072  1.00  0.00     0.004 A 
ATOM     24  C   UNL     1       6.082   0.637  -0.087  1.00  0.00     0.004 A 
ATOM     25  C   UNL     1       6.637  -0.614   0.135  1.00  0.00     0.000 A 
ENDBRANCH  19  20
ENDBRANCH  18  19
ENDBRANCH   2  18
TORSDOF 5
