REMARK SMILES CC(=O)Oc1ccccc1C(=O)[O-]
REMARK SMILES IDX 5 1 6 2 7 3 8 4 9 5 10 6 4 7 2 8 1 9 3 10 11 11 12 12 13 13
REMARK H PARENT
REMARK Flexibility Score: inf
ROOT
ATOM      1  C   UNL     1       0.152   0.153  -0.351  1.00  0.00     0.139 A 
ATOM      2  C   UNL     1       0.446   1.480  -0.643  1.00  0.00     0.048 A 
ATOM      3  C   UNL     1      -0.420   2.503  -0.276  1.00  0.00     0.004 A 
ATOM      4  C   UNL     1      -1.630   2.218   0.339  1.00  0.00     0.001 A 
ATOM      5  C   UNL     1      -2.056   0.907   0.317  1.00  0.00     0.014 A 
ATOM      6  C   UNL     1      -1.197  -0.092  -0.126  1.00  0.00     0.040 A 
ENDROOT
BRANCH   1   7
ATOM      7  O   UNL     1       1.113  -0.720   0.170  1.00  0.00    -0.426 OA
BRANCH   7   8
ATOM      8  C   UNL     1       2.448  -0.339   0.187  1.00  0.00     0.308 C 
ATOM      9  C   UNL     1       3.358  -0.634   1.338  1.00  0.00     0.139 C 
ATOM     10  O   UNL     1       2.870   0.239  -0.859  1.00  0.00    -0.252 OA
ENDBRANCH   7   8
ENDBRANCH   1   7
BRANCH   6  11
ATOM     11  C   UNL     1      -1.637  -1.488  -0.106  1.00  0.00     0.075 C 
ATOM     12  O   UNL     1      -1.635  -2.184  -1.156  1.00  0.00    -0.545 OA
ATOM     13  O   UNL     1      -1.811  -2.042   1.165  1.00  0.00    -0.545 OA
ENDBRANCH   6  11
TORSDOF 3
