REMARK SMILES [NH3+]C[C@H](CC(=O)[O-])c1ccc(Cl)cc1
REMARK SMILES IDX 3 1 2 2 1 3 4 7 5 8 6 9 7 10 8 11 9 12 14 13 10 14 13 15
REMARK SMILES IDX 11 16 12 17
REMARK H PARENT 1 4 1 5 1 6
REMARK Flexibility Score: inf
ROOT
ATOM      1  C   UNL     1      -0.960   0.772  -0.569  1.00  0.00     0.080 C 
ENDROOT
BRANCH   1   2
ATOM      2  C   UNL     1      -0.716   2.008   0.519  1.00  0.00     0.267 C 
BRANCH   2   3
ATOM      3  N   UNL     1      -0.955   3.211  -0.244  1.00  0.00    -0.357 N 
ATOM      4  H   UNL     1      -0.826   4.026   0.355  1.00  0.00     0.344 HD
ATOM      5  H   UNL     1      -1.910   3.201  -0.603  1.00  0.00     0.344 HD
ATOM      6  H   UNL     1      -0.299   3.255  -1.024  1.00  0.00     0.344 HD
ENDBRANCH   2   3
ENDBRANCH   1   2
BRANCH   1   7
ATOM      7  C   UNL     1      -1.766  -0.147   0.560  1.00  0.00     0.067 C 
BRANCH   7   8
ATOM      8  C   UNL     1      -2.994  -0.463  -0.237  1.00  0.00     0.042 C 
ATOM      9  O   UNL     1      -4.123  -0.087   0.172  1.00  0.00    -0.550 OA
ATOM     10  O   UNL     1      -2.954  -1.638  -0.989  1.00  0.00    -0.550 OA
ENDBRANCH   7   8
ENDBRANCH   1   7
BRANCH   1  11
ATOM     11  C   UNL     1       0.467   0.077  -0.228  1.00  0.00    -0.039 A 
ATOM     12  C   UNL     1       1.038  -0.621  -1.258  1.00  0.00     0.006 A 
ATOM     13  C   UNL     1       0.835  -0.059   1.059  1.00  0.00     0.006 A 
ATOM     14  C   UNL     1       2.356  -1.017  -1.047  1.00  0.00     0.021 A 
ATOM     15  C   UNL     1       2.110  -0.586   1.259  1.00  0.00     0.021 A 
ATOM     16  C   UNL     1       2.961  -0.855   0.194  1.00  0.00     0.041 A 
ATOM     17  Cl  UNL     1       4.701  -0.595   0.324  1.00  0.00    -0.084 Cl
ENDBRANCH   1  11
TORSDOF 5
