REMARK SMILES O=C([O-])c1cc(-c2ccc(F)cc2F)ccc1O
REMARK SMILES IDX 4 1 5 2 6 3 15 4 16 5 17 6 2 7 1 8 3 9 18 10 7 12 8 13 13 14
REMARK SMILES IDX 9 15 12 16 14 17 10 18 11 19
REMARK H PARENT 18 11
REMARK Flexibility Score: inf
ROOT
ATOM      1  C   UNL     1      -2.119   0.173  -0.135  1.00  0.00     0.040 A 
ATOM      2  C   UNL     1      -0.765   0.345   0.109  1.00  0.00     0.022 A 
ATOM      3  C   UNL     1       0.012  -0.766   0.408  1.00  0.00    -0.015 A 
ATOM      4  C   UNL     1      -0.572  -1.999   0.524  1.00  0.00     0.013 A 
ATOM      5  C   UNL     1      -1.833  -2.175  -0.030  1.00  0.00     0.047 A 
ATOM      6  C   UNL     1      -2.683  -1.080  -0.108  1.00  0.00     0.124 A 
ENDROOT
BRANCH   1   7
ATOM      7  C   UNL     1      -3.037   1.306  -0.273  1.00  0.00     0.075 C 
ATOM      8  O   UNL     1      -2.769   2.441   0.202  1.00  0.00    -0.545 OA
ATOM      9  O   UNL     1      -4.019   1.245  -1.258  1.00  0.00    -0.545 OA
ENDBRANCH   1   7
BRANCH   6  10
ATOM     10  O   UNL     1      -4.058  -1.275   0.053  1.00  0.00    -0.507 OA
ATOM     11  H   UNL     1      -4.410  -2.143   0.067  1.00  0.00     0.293 HD
ENDBRANCH   6  10
BRANCH   3  12
ATOM     12  C   UNL     1       1.478  -0.679   0.426  1.00  0.00     0.018 A 
ATOM     13  C   UNL     1       2.183  -0.455   1.603  1.00  0.00     0.015 A 
ATOM     14  C   UNL     1       2.192  -0.435  -0.742  1.00  0.00     0.133 A 
ATOM     15  C   UNL     1       3.201   0.491   1.626  1.00  0.00     0.040 A 
ATOM     16  C   UNL     1       3.265   0.448  -0.734  1.00  0.00     0.079 A 
ATOM     17  F   UNL     1       1.657  -0.911  -1.885  1.00  0.00    -0.206 F 
ATOM     18  C   UNL     1       3.724   1.014   0.450  1.00  0.00     0.126 A 
ATOM     19  F   UNL     1       4.143   2.313   0.514  1.00  0.00    -0.207 F 
ENDBRANCH   3  12
TORSDOF 3
