REMARK SMILES CC(=O)N[C@@H](Cc1ccc(O)cc1)C(=O)[O-]
REMARK SMILES IDX 6 1 5 2 4 3 1 4 2 5 3 6 14 8 15 9 16 10 7 11 8 12 13 13 9 14
REMARK SMILES IDX 12 15 10 16 11 17
REMARK H PARENT 4 7 11 18
REMARK Flexibility Score: inf
ROOT
ATOM      1  C   UNL     1       0.555  -0.689  -0.335  1.00  0.00     0.066 C 
ENDROOT
BRANCH   1   2
ATOM      2  C   UNL     1       1.589   0.384  -1.088  1.00  0.00     0.132 C 
BRANCH   2   3
ATOM      3  N   UNL     1       2.897  -0.098  -0.312  1.00  0.00    -0.348 N 
ATOM      4  C   UNL     1       4.030  -1.789   1.085  1.00  0.00     0.114 C 
ATOM      5  C   UNL     1       2.824  -0.972   0.736  1.00  0.00     0.217 C 
ATOM      6  O   UNL     1       1.754  -1.012   1.389  1.00  0.00    -0.275 OA
ATOM      7  H   UNL     1       3.777   0.243  -0.595  1.00  0.00     0.164 HD
ENDBRANCH   2   3
BRANCH   2   8
ATOM      8  C   UNL     1       1.214   1.582  -0.036  1.00  0.00     0.064 C 
ATOM      9  O   UNL     1       2.046   1.865   0.829  1.00  0.00    -0.548 OA
ATOM     10  O   UNL     1       0.905   2.695  -0.841  1.00  0.00    -0.548 OA
ENDBRANCH   2   8
ENDBRANCH   1   2
BRANCH   1  11
ATOM     11  C   UNL     1      -0.802  -0.253  -0.740  1.00  0.00    -0.045 A 
ATOM     12  C   UNL     1      -1.690  -1.244  -1.142  1.00  0.00     0.007 A 
ATOM     13  C   UNL     1      -1.396   0.807  -0.064  1.00  0.00     0.007 A 
ATOM     14  C   UNL     1      -3.030  -1.238  -0.788  1.00  0.00     0.046 A 
ATOM     15  C   UNL     1      -2.738   0.785   0.296  1.00  0.00     0.046 A 
ATOM     16  C   UNL     1      -3.454  -0.406   0.218  1.00  0.00     0.115 A 
BRANCH  16  17
ATOM     17  O   UNL     1      -4.702  -0.417   0.793  1.00  0.00    -0.508 OA
ATOM     18  H   UNL     1      -5.223  -1.196   0.766  1.00  0.00     0.293 HD
ENDBRANCH  16  17
ENDBRANCH   1  11
TORSDOF 5
