REMARK SMILES [NH3+][C@@H](Cc1c[nH]c2ccccc12)C(=O)[O-]
REMARK SMILES IDX 3 1 2 2 1 3 13 7 14 8 15 9 4 10 5 11 12 12 6 13 7 14 11 15
REMARK SMILES IDX 8 17 10 18 9 19
REMARK H PARENT 1 4 1 5 1 6 6 16
REMARK Flexibility Score: inf
ROOT
ATOM      1  C   UNL     1       1.285  -0.937   0.433  1.00  0.00     0.109 C 
ENDROOT
BRANCH   1   2
ATOM      2  C   UNL     1       2.202  -0.233  -0.783  1.00  0.00     0.232 C 
BRANCH   2   3
ATOM      3  N   UNL     1       3.389  -1.296  -0.559  1.00  0.00    -0.350 N 
ATOM      4  H   UNL     1       3.211  -2.128  -1.122  1.00  0.00     0.345 HD
ATOM      5  H   UNL     1       3.431  -1.556   0.427  1.00  0.00     0.345 HD
ATOM      6  H   UNL     1       4.276  -0.879  -0.840  1.00  0.00     0.345 HD
ENDBRANCH   2   3
BRANCH   2   7
ATOM      7  C   UNL     1       2.886   0.845   0.250  1.00  0.00     0.099 C 
ATOM      8  O   UNL     1       3.260   0.407   1.330  1.00  0.00    -0.544 OA
ATOM      9  O   UNL     1       2.805   2.151  -0.162  1.00  0.00    -0.544 OA
ENDBRANCH   2   7
ENDBRANCH   1   2
BRANCH   1  10
ATOM     10  C   UNL     1      -0.072  -1.062  -0.193  1.00  0.00    -0.016 A 
ATOM     11  C   UNL     1      -0.805  -2.244  -0.245  1.00  0.00     0.087 A 
ATOM     12  C   UNL     1      -1.053  -0.080  -0.279  1.00  0.00     0.003 A 
ATOM     13  N   UNL     1      -2.090  -1.966   0.077  1.00  0.00    -0.361 N 
ATOM     14  C   UNL     1      -2.292  -0.633   0.025  1.00  0.00     0.046 A 
ATOM     15  C   UNL     1      -0.920   1.296  -0.376  1.00  0.00     0.010 A 
ATOM     16  H   UNL     1      -2.774  -2.635   0.312  1.00  0.00     0.166 HD
ATOM     17  C   UNL     1      -3.342   0.162   0.471  1.00  0.00     0.026 A 
ATOM     18  C   UNL     1      -2.049   2.075  -0.235  1.00  0.00     0.001 A 
ATOM     19  C   UNL     1      -3.203   1.517   0.246  1.00  0.00     0.002 A 
ENDBRANCH   1  10
TORSDOF 4
