REMARK SMILES Cc1ccc(C(=O)c2ccc(CC(=O)[O-])n2C)cc1
REMARK SMILES IDX 8 1 9 2 10 3 11 4 16 5 17 6 6 7 7 8 5 9 1 10 2 11 3 12 19 13
REMARK SMILES IDX 4 14 18 15 12 16 13 17 14 18 15 19
REMARK H PARENT
REMARK Flexibility Score: inf
ROOT
ATOM      1  C   UNL     1      -0.633  -1.214  -0.436  1.00  0.00     0.089 A 
ATOM      2  C   UNL     1      -1.542  -2.254  -0.584  1.00  0.00     0.032 A 
ATOM      3  C   UNL     1      -2.803  -1.677  -0.520  1.00  0.00     0.024 A 
ATOM      4  C   UNL     1      -2.626  -0.372  -0.074  1.00  0.00     0.023 A 
ATOM      5  N   UNL     1      -1.297  -0.108  -0.022  1.00  0.00    -0.345 N 
ATOM      6  C   UNL     1      -0.655   0.869   0.854  1.00  0.00     0.150 C 
ENDROOT
BRANCH   1   7
ATOM      7  C   UNL     1       0.750  -1.297  -0.889  1.00  0.00     0.209 C 
ATOM      8  O   UNL     1       1.127  -2.172  -1.724  1.00  0.00    -0.287 OA
BRANCH   7   9
ATOM      9  C   UNL     1       1.834  -0.525  -0.269  1.00  0.00     0.024 A 
ATOM     10  C   UNL     1       5.652   1.247   0.070  1.00  0.00     0.044 C 
ATOM     11  C   UNL     1       4.253   0.741   0.234  1.00  0.00    -0.051 A 
ATOM     12  C   UNL     1       4.049  -0.567   0.655  1.00  0.00     0.004 A 
ATOM     13  C   UNL     1       3.164   1.408  -0.312  1.00  0.00     0.004 A 
ATOM     14  C   UNL     1       2.872  -1.227   0.331  1.00  0.00     0.012 A 
ATOM     15  C   UNL     1       2.142   0.674  -0.900  1.00  0.00     0.012 A 
ENDBRANCH   7   9
ENDBRANCH   1   7
BRANCH   4  16
ATOM     16  C   UNL     1      -3.644   0.313   0.783  1.00  0.00     0.106 C 
BRANCH  16  17
ATOM     17  C   UNL     1      -4.049   1.612   0.163  1.00  0.00     0.047 C 
ATOM     18  O   UNL     1      -3.206   2.551   0.293  1.00  0.00    -0.550 OA
ATOM     19  O   UNL     1      -5.385   1.998   0.319  1.00  0.00    -0.550 OA
ENDBRANCH  16  17
ENDBRANCH   4  16
TORSDOF 4
