REMARK SMILES CC(C)[C@H]1CC[C@H](C(=O)N[C@H](Cc2ccccc2)C(=O)[O-])CC1
REMARK SMILES IDX 8 1 9 2 10 3 7 5 4 6 5 7 23 8 6 9 22 10 2 11 1 12 3 13 11 14
REMARK SMILES IDX 12 15 13 16 14 17 18 18 15 19 17 20 16 21 19 22 20 23 21 24
REMARK H PARENT 10 4
REMARK Flexibility Score: inf
ROOT
ATOM      1  C   UNL     1       0.574  -0.605   0.384  1.00  0.00     0.223 C 
ATOM      2  O   UNL     1      -0.012  -1.310  -0.492  1.00  0.00    -0.275 OA
ATOM      3  N   UNL     1      -0.212   0.139   1.246  1.00  0.00    -0.348 N 
ATOM      4  H   UNL     1       0.131   0.401   2.131  1.00  0.00     0.164 HD
ENDROOT
BRANCH   1   5
ATOM      5  C   UNL     1       2.008  -0.833   0.746  1.00  0.00     0.078 C 
ATOM      6  C   UNL     1       4.176   0.671  -0.436  1.00  0.00    -0.009 C 
ATOM      7  C   UNL     1       3.658   1.089   0.872  1.00  0.00     0.004 C 
ATOM      8  C   UNL     1       3.286  -0.145  -1.294  1.00  0.00     0.004 C 
ATOM      9  C   UNL     1       2.507   0.372   1.435  1.00  0.00     0.014 C 
ATOM     10  C   UNL     1       2.787  -1.292  -0.444  1.00  0.00     0.014 C 
BRANCH   6  11
ATOM     11  C   UNL     1       5.621   0.214  -0.412  1.00  0.00    -0.014 C 
ATOM     12  C   UNL     1       5.889   0.494  -0.531  1.00  0.00     0.007 C 
ATOM     13  C   UNL     1       5.945  -0.597   0.840  1.00  0.00     0.007 C 
ENDBRANCH   6  11
ENDBRANCH   1   5
BRANCH   3  14
ATOM     14  C   UNL     1      -1.660   0.561   0.797  1.00  0.00     0.132 C 
BRANCH  14  15
ATOM     15  C   UNL     1      -2.035  -0.950   0.261  1.00  0.00     0.066 C 
BRANCH  15  16
ATOM     16  C   UNL     1      -3.524  -0.915   0.436  1.00  0.00    -0.046 A 
ATOM     17  C   UNL     1      -4.387  -0.895  -0.652  1.00  0.00     0.004 A 
ATOM     18  C   UNL     1      -4.047  -0.399   1.617  1.00  0.00     0.004 A 
ATOM     19  C   UNL     1      -5.494  -0.055  -0.638  1.00  0.00     0.000 A 
ATOM     20  C   UNL     1      -5.411  -0.152   1.735  1.00  0.00     0.000 A 
ATOM     21  C   UNL     1      -5.992   0.373   0.586  1.00  0.00     0.000 A 
ENDBRANCH  15  16
ENDBRANCH  14  15
BRANCH  14  22
ATOM     22  C   UNL     1      -1.182   1.036  -0.673  1.00  0.00     0.064 C 
ATOM     23  O   UNL     1      -2.116   1.033  -1.509  1.00  0.00    -0.548 OA
ATOM     24  O   UNL     1      -0.379   2.167  -0.513  1.00  0.00    -0.548 OA
ENDBRANCH  14  22
ENDBRANCH   3  14
TORSDOF 6
