REMARK SMILES CCc1cccc2c3c([nH]c12)[C@](CC)(CC(=O)[O-])OCC3
REMARK SMILES IDX 3 1 4 2 5 3 6 4 7 5 8 6 9 7 10 8 11 9 12 10 19 11 20 12
REMARK SMILES IDX 21 13 2 15 1 16 13 17 14 18 15 19 16 20 17 21 18 22
REMARK H PARENT 10 14
REMARK Flexibility Score: inf
ROOT
ATOM      1  C   UNL     1      -2.963   1.006  -0.060  1.00  0.00    -0.024 A 
ATOM      2  C   UNL     1      -4.081   0.183  -0.056  1.00  0.00     0.006 A 
ATOM      3  C   UNL     1      -3.984  -1.203  -0.083  1.00  0.00     0.001 A 
ATOM      4  C   UNL     1      -2.782  -1.774  -0.487  1.00  0.00     0.010 A 
ATOM      5  C   UNL     1      -1.666  -0.987  -0.342  1.00  0.00     0.003 A 
ATOM      6  C   UNL     1      -0.338  -1.272  -0.544  1.00  0.00    -0.014 A 
ATOM      7  C   UNL     1       0.345  -0.335   0.225  1.00  0.00     0.052 A 
ATOM      8  N   UNL     1      -0.473   0.743   0.308  1.00  0.00    -0.356 N 
ATOM      9  C   UNL     1      -1.739   0.354   0.017  1.00  0.00     0.049 A 
ATOM     10  C   UNL     1       1.831  -0.521   0.177  1.00  0.00     0.113 C 
ATOM     11  O   UNL     1       2.160  -0.473  -1.159  1.00  0.00    -0.368 OA
ATOM     12  C   UNL     1       1.810  -1.666  -1.751  1.00  0.00     0.166 C 
ATOM     13  C   UNL     1       0.433  -2.158  -1.435  1.00  0.00     0.066 C 
ATOM     14  H   UNL     1      -0.194   1.658   0.541  1.00  0.00     0.166 HD
ENDROOT
BRANCH   1  15
ATOM     15  C   UNL     1      -3.017   2.383   0.482  1.00  0.00     0.034 C 
ATOM     16  C   UNL     1      -3.888   3.277  -0.359  1.00  0.00     0.009 C 
ENDBRANCH   1  15
BRANCH  10  17
ATOM     17  C   UNL     1       2.087  -1.939   0.675  1.00  0.00     0.039 C 
ATOM     18  C   UNL     1       3.601  -2.079   0.776  1.00  0.00     0.007 C 
ENDBRANCH  10  17
BRANCH  10  19
ATOM     19  C   UNL     1       2.537   0.431   1.062  1.00  0.00     0.094 C 
BRANCH  19  20
ATOM     20  C   UNL     1       3.149   1.591   0.378  1.00  0.00     0.045 C 
ATOM     21  O   UNL     1       4.418   1.609   0.384  1.00  0.00    -0.550 OA
ATOM     22  O   UNL     1       2.561   2.832   0.652  1.00  0.00    -0.550 OA
ENDBRANCH  19  20
ENDBRANCH  10  19
TORSDOF 4
