REMARK SMILES CC(C)C(=O)O[C@@H](C)OC(=O)NCC1(CC(=O)[O-])CCCCC1
REMARK SMILES IDX 10 1 11 2 12 3 9 5 7 6 8 7 6 8 4 9 5 10 2 11 1 12 3 13 13 14
REMARK SMILES IDX 14 15 19 16 23 17 20 18 22 19 21 20 15 21 16 22 17 23 18 24
REMARK H PARENT 12 4
REMARK Flexibility Score: inf
ROOT
ATOM      1  C   UNL     1      -0.634  -0.076  -0.568  1.00  0.00     0.410 C 
ATOM      2  O   UNL     1      -1.262  -0.446   0.460  1.00  0.00    -0.224 OA
ATOM      3  N   UNL     1       0.766   0.149  -0.460  1.00  0.00    -0.321 N 
ATOM      4  H   UNL     1       1.382  -0.131  -1.175  1.00  0.00     0.167 HD
ENDROOT
BRANCH   1   5
ATOM      5  O   UNL     1      -1.418   0.371  -1.639  1.00  0.00    -0.409 OA
BRANCH   5   6
ATOM      6  C   UNL     1      -2.713  -0.528  -1.813  1.00  0.00     0.368 C 
ATOM      7  C   UNL     1      -3.008   0.115  -3.355  1.00  0.00     0.102 C 
BRANCH   6   8
ATOM      8  O   UNL     1      -3.629   0.576  -1.136  1.00  0.00    -0.425 OA
BRANCH   8   9
ATOM      9  C   UNL     1      -4.916   0.046  -0.969  1.00  0.00     0.311 C 
ATOM     10  O   UNL     1      -5.401  -0.716  -1.845  1.00  0.00    -0.252 OA
BRANCH   9  11
ATOM     11  C   UNL     1      -5.707   0.345   0.261  1.00  0.00     0.093 C 
ATOM     12  C   UNL     1      -5.715   0.845   0.555  1.00  0.00     0.019 C 
ATOM     13  C   UNL     1      -6.444  -0.898   0.728  1.00  0.00     0.019 C 
ENDBRANCH   9  11
ENDBRANCH   8   9
ENDBRANCH   6   8
ENDBRANCH   5   6
ENDBRANCH   1   5
BRANCH   3  14
ATOM     14  C   UNL     1       1.259   0.809   0.745  1.00  0.00     0.126 C 
BRANCH  14  15
ATOM     15  C   UNL     1       2.764   0.662   0.901  1.00  0.00    -0.007 C 
ATOM     16  C   UNL     1       3.056  -0.764   1.138  1.00  0.00     0.009 C 
ATOM     17  C   UNL     1       3.141   1.614   1.997  1.00  0.00     0.009 C 
ATOM     18  C   UNL     1       3.936  -1.126   2.264  1.00  0.00     0.001 C 
ATOM     19  C   UNL     1       4.331   1.193   2.800  1.00  0.00     0.001 C 
ATOM     20  C   UNL     1       4.003  -0.152   3.395  1.00  0.00     0.000 C 
BRANCH  15  21
ATOM     21  C   UNL     1       3.490   1.140  -0.353  1.00  0.00     0.061 C 
BRANCH  21  22
ATOM     22  C   UNL     1       4.435   0.129  -0.867  1.00  0.00     0.042 C 
ATOM     23  O   UNL     1       5.690   0.244  -0.754  1.00  0.00    -0.550 OA
ATOM     24  O   UNL     1       3.974  -1.036  -1.484  1.00  0.00    -0.550 OA
ENDBRANCH  21  22
ENDBRANCH  15  21
ENDBRANCH  14  15
ENDBRANCH   3  14
TORSDOF 9
