REMARK SMILES C[C@H](CCC(=O)[O-])[C@H]1CC[C@H]2[C@@H]3[C@H](O)C[C@@H]4C[C@H](O)CC[C@]4(C)[C@H]3CC[C@]12C
REMARK SMILES IDX 1 1 2 2 3 3 4 4 5 5 6 6 7 7 8 8 9 9 27 10 10 11 11 12 26 13
REMARK SMILES IDX 28 14 12 15 25 16 13 17 24 18 15 19 22 20 16 21 21 22 23 23
REMARK SMILES IDX 17 24 20 25 18 26 14 27 19 29
REMARK H PARENT 14 28 19 30
REMARK Flexibility Score: inf
ROOT
ATOM      1  C   UNL     1       4.182  -1.677   1.526  1.00  0.00     0.008 C 
ATOM      2  C   UNL     1       3.233  -1.488   0.226  1.00  0.00    -0.010 C 
ENDROOT
BRANCH   2   3
ATOM      3  C   UNL     1       4.420  -0.755  -0.598  1.00  0.00     0.009 C 
BRANCH   3   4
ATOM      4  C   UNL     1       4.788   0.466  -0.256  1.00  0.00     0.053 C 
BRANCH   4   5
ATOM      5  C   UNL     1       5.772   1.270   0.287  1.00  0.00     0.041 C 
ATOM      6  O   UNL     1       5.410   2.472   0.354  1.00  0.00    -0.550 OA
ATOM      7  O   UNL     1       7.003   0.734   0.509  1.00  0.00    -0.550 OA
ENDBRANCH   4   5
ENDBRANCH   3   4
ENDBRANCH   2   3
BRANCH   2   8
ATOM      8  C   UNL     1       2.464  -0.113   0.883  1.00  0.00    -0.002 C 
ATOM      9  C   UNL     1       2.374   0.622  -0.566  1.00  0.00     0.005 C 
ATOM     10  C   UNL     1       0.966  -0.716   0.806  1.00  0.00    -0.026 C 
ATOM     11  C   UNL     1       1.465  -0.334  -1.333  1.00  0.00     0.005 C 
ATOM     12  C   UNL     1       0.389   0.318  -0.302  1.00  0.00     0.001 C 
ATOM     13  C   UNL     1       0.161  -0.382   1.971  1.00  0.00     0.007 C 
ATOM     14  C   UNL     1       0.944  -2.077   0.297  1.00  0.00     0.012 C 
ATOM     15  C   UNL     1      -0.864  -0.701  -0.682  1.00  0.00     0.025 C 
ATOM     16  C   UNL     1      -1.275  -0.791   1.629  1.00  0.00     0.005 C 
ATOM     17  C   UNL     1      -1.442   0.000  -2.108  1.00  0.00     0.118 C 
ATOM     18  C   UNL     1      -1.757   0.183   0.427  1.00  0.00     0.001 C 
ATOM     19  C   UNL     1      -2.415   1.144  -1.438  1.00  0.00     0.036 C 
ATOM     20  C   UNL     1      -3.137  -0.582   0.113  1.00  0.00    -0.026 C 
ATOM     21  C   UNL     1      -3.727   0.204  -1.174  1.00  0.00     0.000 C 
ATOM     22  C   UNL     1      -3.931  -0.575   1.267  1.00  0.00     0.010 C 
ATOM     23  C   UNL     1      -2.885  -1.987  -0.287  1.00  0.00     0.012 C 
ATOM     24  C   UNL     1      -4.460   1.362  -0.287  1.00  0.00     0.036 C 
ATOM     25  C   UNL     1      -5.090   0.137   1.611  1.00  0.00     0.032 C 
ATOM     26  C   UNL     1      -5.795   0.512   0.173  1.00  0.00     0.114 C 
BRANCH  17  27
ATOM     27  O   UNL     1      -0.343   1.019  -2.315  1.00  0.00    -0.393 OA
ATOM     28  H   UNL     1      -0.201   1.512  -1.492  1.00  0.00     0.210 HD
ENDBRANCH  17  27
BRANCH  26  29
ATOM     29  O   UNL     1      -6.453   1.739   0.778  1.00  0.00    -0.393 OA
ATOM     30  H   UNL     1      -5.804   2.223   1.313  1.00  0.00     0.210 HD
ENDBRANCH  26  29
ENDBRANCH   2   8
TORSDOF 6
