REMARK SMILES COc1ccc2c(c1)c(CC(=O)[O-])c(C)n2C(=O)c1ccc(Cl)cc1
REMARK SMILES IDX 3 1 4 2 5 3 6 4 7 5 8 6 9 7 14 8 15 9 16 10 2 11 1 12 10 13
REMARK SMILES IDX 11 14 12 15 13 16 17 17 18 18 19 19 20 20 25 21 21 22 24 23
REMARK SMILES IDX 22 24 23 25
REMARK H PARENT
REMARK Flexibility Score: inf
ROOT
ATOM      1  C   UNL     1      -2.172   2.766  -0.538  1.00  0.00     0.119 A 
ATOM      2  C   UNL     1      -0.794   2.888  -0.631  1.00  0.00     0.048 A 
ATOM      3  C   UNL     1       0.048   1.802  -0.423  1.00  0.00     0.031 A 
ATOM      4  C   UNL     1      -0.489   0.551  -0.255  1.00  0.00     0.057 A 
ATOM      5  C   UNL     1      -1.829   0.405  -0.566  1.00  0.00     0.008 A 
ATOM      6  C   UNL     1      -2.685   1.484  -0.553  1.00  0.00     0.057 A 
ATOM      7  C   UNL     1      -2.144  -0.927  -0.343  1.00  0.00    -0.013 A 
ATOM      8  C   UNL     1      -0.930  -1.553  -0.121  1.00  0.00     0.027 A 
ATOM      9  C   UNL     1      -0.688  -3.002  -0.280  1.00  0.00     0.065 C 
ATOM     10  N   UNL     1       0.034  -0.643   0.116  1.00  0.00    -0.280 N 
ENDROOT
BRANCH   1  11
ATOM     11  O   UNL     1      -3.053   3.791  -0.812  1.00  0.00    -0.497 OA
ATOM     12  C   UNL     1      -2.576   5.129  -0.739  1.00  0.00     0.278 C 
ENDBRANCH   1  11
BRANCH   7  13
ATOM     13  C   UNL     1      -3.501  -1.506  -0.211  1.00  0.00     0.090 C 
BRANCH  13  14
ATOM     14  C   UNL     1      -3.627  -2.429   0.936  1.00  0.00     0.046 C 
ATOM     15  O   UNL     1      -4.106  -3.586   0.746  1.00  0.00    -0.550 OA
ATOM     16  O   UNL     1      -3.575  -1.963   2.243  1.00  0.00    -0.550 OA
ENDBRANCH  13  14
ENDBRANCH   7  13
BRANCH  10  17
ATOM     17  C   UNL     1       1.216  -0.848   0.862  1.00  0.00     0.262 C 
ATOM     18  O   UNL     1       1.091  -1.146   2.087  1.00  0.00    -0.268 OA
BRANCH  17  19
ATOM     19  C   UNL     1       2.535  -0.506   0.375  1.00  0.00     0.040 A 
ATOM     20  C   UNL     1       3.649  -0.837   1.130  1.00  0.00     0.015 A 
ATOM     21  C   UNL     1       2.778  -0.109  -0.922  1.00  0.00     0.015 A 
ATOM     22  C   UNL     1       4.882  -0.295   0.803  1.00  0.00     0.021 A 
ATOM     23  C   UNL     1       4.081  -0.048  -1.400  1.00  0.00     0.021 A 
ATOM     24  C   UNL     1       5.107   0.147  -0.485  1.00  0.00     0.041 A 
ATOM     25  Cl  UNL     1       6.747   0.437  -1.022  1.00  0.00    -0.084 Cl
ENDBRANCH  17  19
ENDBRANCH  10  17
TORSDOF 5
