REMARK SMILES [H]/N=C\NCCSC1=C(C(=O)[O-])N2C(=O)[C@H]([C@@H](C)O)[C@H]2C1
REMARK SMILES IDX 7 1 8 2 16 3 14 4 20 5 15 6 13 7 21 8 9 9 17 10 18 11 19 12
REMARK SMILES IDX 10 14 11 15 12 16 6 17 5 18 4 19 3 20 2 22 1 23
REMARK H PARENT 19 13 4 21
REMARK Flexibility Score: inf
ROOT
ATOM      1  S   UNL     1       2.118   0.620  -0.702  1.00  0.00    -0.126 SA
ENDROOT
BRANCH   1   2
ATOM      2  C   UNL     1       0.392   0.175  -0.647  1.00  0.00     0.013 C 
ATOM      3  C   UNL     1      -2.539  -1.653  -0.274  1.00  0.00     0.131 C 
ATOM      4  C   UNL     1      -3.084  -0.173  -0.380  1.00  0.00     0.235 C 
ATOM      5  C   UNL     1      -1.309  -0.899   0.649  1.00  0.00     0.111 C 
ATOM      6  O   UNL     1      -3.948   0.163  -1.205  1.00  0.00    -0.274 OA
ATOM      7  N   UNL     1      -1.792   0.397  -0.122  1.00  0.00    -0.305 N 
ATOM      8  C   UNL     1      -0.160  -1.200  -0.522  1.00  0.00     0.071 C 
ATOM      9  C   UNL     1      -0.554   1.063  -0.403  1.00  0.00     0.076 C 
BRANCH   3  10
ATOM     10  C   UNL     1      -3.524  -1.995   1.114  1.00  0.00     0.125 C 
ATOM     11  C   UNL     1      -4.909  -2.042   0.179  1.00  0.00     0.039 C 
BRANCH  10  12
ATOM     12  O   UNL     1      -3.314  -3.508   0.937  1.00  0.00    -0.393 OA
ATOM     13  H   UNL     1      -3.437  -3.745   0.004  1.00  0.00     0.210 HD
ENDBRANCH  10  12
ENDBRANCH   3  10
BRANCH   9  14
ATOM     14  C   UNL     1      -0.439   2.510  -0.417  1.00  0.00     0.089 C 
ATOM     15  O   UNL     1      -1.417   3.270  -0.680  1.00  0.00    -0.543 OA
ATOM     16  O   UNL     1       0.628   3.048   0.308  1.00  0.00    -0.543 OA
ENDBRANCH   9  14
ENDBRANCH   1   2
BRANCH   1  17
ATOM     17  C   UNL     1       2.662   0.783   1.018  1.00  0.00     0.096 C 
BRANCH  17  18
ATOM     18  C   UNL     1       3.945   0.004   1.187  1.00  0.00     0.125 C 
BRANCH  18  19
ATOM     19  N   UNL     1       4.989   0.717   0.457  1.00  0.00    -0.376 N 
ATOM     20  C   UNL     1       6.073  -0.008  -0.129  1.00  0.00     0.182 C 
ATOM     21  H   UNL     1       4.947   1.697   0.368  1.00  0.00     0.161 HD
ATOM     22  N   UNL     1       6.183  -1.269   0.118  1.00  0.00    -0.292 NA
ATOM     23  H   UNL     1       5.527  -1.715   0.701  1.00  0.00     0.189 HD
ENDBRANCH  18  19
ENDBRANCH  17  18
ENDBRANCH   1  17
TORSDOF 7
