REMARK SMILES O=C([O-])C[C@H](O)C[C@H](O)/C=C/c1c(C2CC2)nc2ccccc2c1-c1ccc(F)cc1
REMARK SMILES IDX 7 1 5 2 4 3 2 4 1 5 3 6 6 7 8 9 9 10 10 12 11 13 12 14 13 15
REMARK SMILES IDX 24 16 17 17 23 18 18 19 22 20 19 21 21 22 20 23 14 24 15 25
REMARK SMILES IDX 16 26 25 27 26 28 31 29 27 30 30 31 28 32 29 33
REMARK H PARENT 6 8 9 11
REMARK Flexibility Score: inf
ROOT
ATOM      1  C   UNL     1       3.622  -0.118  -1.114  1.00  0.00     0.068 C 
ENDROOT
BRANCH   1   2
ATOM      2  C   UNL     1       4.564  -0.212   0.222  1.00  0.00     0.123 C 
BRANCH   2   3
ATOM      3  C   UNL     1       5.899   0.277  -0.621  1.00  0.00     0.084 C 
BRANCH   3   4
ATOM      4  C   UNL     1       6.886  -0.114   0.445  1.00  0.00     0.044 C 
ATOM      5  O   UNL     1       7.131  -0.887   0.516  1.00  0.00    -0.550 OA
ATOM      6  O   UNL     1       6.960   0.883   1.425  1.00  0.00    -0.550 OA
ENDBRANCH   3   4
ENDBRANCH   2   3
BRANCH   2   7
ATOM      7  O   UNL     1       4.878  -1.677  -0.046  1.00  0.00    -0.393 OA
ATOM      8  H   UNL     1       5.105  -1.793  -0.982  1.00  0.00     0.210 HD
ENDBRANCH   2   7
ENDBRANCH   1   2
BRANCH   1   9
ATOM      9  C   UNL     1       2.288   0.700  -0.588  1.00  0.00     0.140 C 
BRANCH   9  10
ATOM     10  O   UNL     1       2.446   0.407   0.901  1.00  0.00    -0.389 OA
ATOM     11  H   UNL     1       2.653  -0.532   1.025  1.00  0.00     0.211 HD
ENDBRANCH   9  10
BRANCH   9  12
ATOM     12  C   UNL     1       1.381  -0.637  -0.778  1.00  0.00     0.005 C 
ATOM     13  C   UNL     1       0.181  -0.440  -1.237  1.00  0.00     0.009 C 
BRANCH  13  14
ATOM     14  C   UNL     1      -1.047  -0.851  -0.603  1.00  0.00     0.005 A 
ATOM     15  C   UNL     1      -1.346  -2.197  -0.442  1.00  0.00     0.052 A 
ATOM     16  C   UNL     1      -2.109   0.036  -0.722  1.00  0.00     0.000 A 
ATOM     17  N   UNL     1      -2.628  -2.577  -0.344  1.00  0.00    -0.252 NA
ATOM     18  C   UNL     1      -3.347  -0.369  -0.294  1.00  0.00     0.009 A 
ATOM     19  C   UNL     1      -3.654  -1.708  -0.184  1.00  0.00     0.071 A 
ATOM     20  C   UNL     1      -4.331   0.568  -0.021  1.00  0.00     0.011 A 
ATOM     21  C   UNL     1      -4.785  -2.058   0.510  1.00  0.00     0.029 A 
ATOM     22  C   UNL     1      -5.449   0.252   0.741  1.00  0.00     0.001 A 
ATOM     23  C   UNL     1      -5.633  -1.090   1.022  1.00  0.00     0.002 A 
BRANCH  15  24
ATOM     24  C   UNL     1      -0.201  -3.073  -0.045  1.00  0.00     0.039 C 
ATOM     25  C   UNL     1      -0.601  -4.163   0.988  1.00  0.00     0.011 C 
ATOM     26  C   UNL     1       0.219  -3.014   1.447  1.00  0.00     0.011 C 
ENDBRANCH  15  24
BRANCH  16  27
ATOM     27  C   UNL     1      -1.777   1.460  -0.583  1.00  0.00    -0.017 A 
ATOM     28  C   UNL     1      -2.700   2.356  -1.110  1.00  0.00     0.012 A 
ATOM     29  C   UNL     1      -1.188   1.876   0.606  1.00  0.00     0.012 A 
ATOM     30  C   UNL     1      -2.571   3.704  -0.802  1.00  0.00     0.040 A 
ATOM     31  C   UNL     1      -0.725   3.186   0.609  1.00  0.00     0.040 A 
ATOM     32  C   UNL     1      -1.388   4.095  -0.199  1.00  0.00     0.123 A 
ATOM     33  F   UNL     1      -0.976   5.385  -0.209  1.00  0.00    -0.207 F 
ENDBRANCH  16  27
ENDBRANCH  13  14
ENDBRANCH   9  12
ENDBRANCH   1   9
TORSDOF 10
