REMARK SMILES Cc1cc(C)c(NC(=O)C[NH+](CC(=O)[O-])CC(=O)[O-])c(C)c1Br
REMARK SMILES IDX 10 1 8 2 7 3 9 5 6 6 1 7 2 8 3 9 22 10 4 11 20 12 23 13 5 14
REMARK SMILES IDX 21 15 11 16 12 18 13 19 14 20 15 21 16 22 17 23 18 24 19 25
REMARK H PARENT 7 4 11 17
REMARK Flexibility Score: inf
ROOT
ATOM      1  C   UNL     1       1.802  -0.279  -1.033  1.00  0.00     0.364 C 
ENDROOT
BRANCH   1   2
ATOM      2  C   UNL     1       0.580   0.135  -0.329  1.00  0.00     0.279 C 
ATOM      3  N   UNL     1      -0.669  -0.183  -0.956  1.00  0.00    -0.321 N 
ATOM      4  H   UNL     1      -0.673  -0.596  -1.850  1.00  0.00     0.170 HD
ATOM      5  O   UNL     1       0.510   0.350   0.916  1.00  0.00    -0.268 OA
BRANCH   3   6
ATOM      6  C   UNL     1      -1.908   0.091  -0.298  1.00  0.00     0.048 A 
ATOM      7  C   UNL     1      -5.987   0.541   0.680  1.00  0.00     0.045 C 
ATOM      8  C   UNL     1      -4.589   0.372   0.235  1.00  0.00    -0.036 A 
ATOM      9  C   UNL     1      -3.899   1.392  -0.408  1.00  0.00     0.010 A 
ATOM     10  C   UNL     1      -3.934  -0.814   0.535  1.00  0.00     0.025 A 
ATOM     11  C   UNL     1      -2.515   1.318  -0.406  1.00  0.00    -0.027 A 
ATOM     12  C   UNL     1      -2.570  -0.965   0.317  1.00  0.00    -0.013 A 
ATOM     13  Br  UNL     1      -4.914  -2.406   0.954  1.00  0.00    -0.050 Br
ATOM     14  C   UNL     1      -1.653   2.497  -0.718  1.00  0.00     0.046 C 
ATOM     15  C   UNL     1      -1.794  -2.089   0.914  1.00  0.00     0.048 C 
ENDBRANCH   3   6
ENDBRANCH   1   2
BRANCH   1  16
ATOM     16  N   UNL     1       3.021   0.081  -0.409  1.00  0.00    -0.318 N 
ATOM     17  H   UNL     1       3.447   0.627  -1.158  1.00  0.00     0.349 HD
BRANCH  16  18
ATOM     18  C   UNL     1       3.997  -0.934  -0.255  1.00  0.00     0.316 C 
BRANCH  18  19
ATOM     19  C   UNL     1       3.470  -2.279   0.029  1.00  0.00     0.096 C 
ATOM     20  O   UNL     1       2.277  -2.627  -0.163  1.00  0.00    -0.544 OA
ATOM     21  O   UNL     1       4.405  -3.319   0.076  1.00  0.00    -0.544 OA
ENDBRANCH  18  19
ENDBRANCH  16  18
BRANCH  16  22
ATOM     22  C   UNL     1       2.944   1.055   0.630  1.00  0.00     0.316 C 
BRANCH  22  23
ATOM     23  C   UNL     1       3.529   2.316   0.107  1.00  0.00     0.096 C 
ATOM     24  O   UNL     1       4.322   2.348  -0.857  1.00  0.00    -0.544 OA
ATOM     25  O   UNL     1       3.575   3.401   0.988  1.00  0.00    -0.544 OA
ENDBRANCH  22  23
ENDBRANCH  16  22
ENDBRANCH   1  16
TORSDOF 7
