REMARK SMILES CC#CC[C@H](C)[C@H](O)/C=C/[C@@H]1[C@H]2C/C(=C/CCCC(=O)[O-])C[C@H]2C[C@H]1O
REMARK SMILES IDX 11 1 25 2 24 3 23 4 22 5 14 6 15 7 13 8 12 9 10 10 9 11 7 12
REMARK SMILES IDX 5 13 6 14 4 15 3 16 1 17 2 18 8 19 26 21 16 23 17 24 18 25
REMARK SMILES IDX 19 26 20 27 21 28
REMARK H PARENT 8 20 26 22
REMARK Flexibility Score: inf
ROOT
ATOM      1  C   UNL     1       0.481  -2.316  -0.881  1.00  0.00     0.044 C 
ATOM      2  C   UNL     1       0.235  -2.559   0.807  1.00  0.00     0.121 C 
ATOM      3  C   UNL     1      -1.287  -1.925   0.894  1.00  0.00     0.036 C 
ATOM      4  C   UNL     1      -0.624  -0.524   0.384  1.00  0.00    -0.000 C 
ATOM      5  C   UNL     1      -2.076   0.193   0.131  1.00  0.00     0.034 C 
ATOM      6  C   UNL     1      -2.856  -0.877  -0.498  1.00  0.00    -0.074 C 
ATOM      7  C   UNL     1      -4.129  -1.064  -0.113  1.00  0.00    -0.028 C 
ATOM      8  C   UNL     1      -2.027  -2.055  -0.916  1.00  0.00     0.035 C 
ATOM      9  C   UNL     1      -0.698  -1.154  -1.193  1.00  0.00     0.006 C 
ENDROOT
BRANCH   1  10
ATOM     10  C   UNL     1       1.566  -1.174  -0.570  1.00  0.00    -0.022 C 
ATOM     11  C   UNL     1       2.753  -1.212  -1.078  1.00  0.00     0.000 C 
BRANCH  11  12
ATOM     12  C   UNL     1       3.997  -1.284  -0.001  1.00  0.00     0.140 C 
BRANCH  12  13
ATOM     13  C   UNL     1       4.474   0.358  -0.334  1.00  0.00     0.030 C 
ATOM     14  C   UNL     1       3.036   0.912   0.192  1.00  0.00     0.012 C 
BRANCH  13  15
ATOM     15  C   UNL     1       5.130   0.511   1.148  1.00  0.00     0.095 C 
BRANCH  15  16
ATOM     16  C   UNL     1       6.077   1.631   1.087  1.00  0.00    -0.103 C 
ATOM     17  C   UNL     1       7.474   3.811   0.637  1.00  0.00     0.107 C 
ATOM     18  C   UNL     1       6.766   2.635   1.112  1.00  0.00    -0.107 C 
ENDBRANCH  15  16
ENDBRANCH  13  15
ENDBRANCH  12  13
BRANCH  12  19
ATOM     19  O   UNL     1       4.963  -1.826  -1.071  1.00  0.00    -0.389 OA
ATOM     20  H   UNL     1       4.873  -1.302  -1.883  1.00  0.00     0.211 HD
ENDBRANCH  12  19
ENDBRANCH  11  12
ENDBRANCH   1  10
BRANCH   2  21
ATOM     21  O   UNL     1      -0.350  -3.975   0.569  1.00  0.00    -0.392 OA
ATOM     22  H   UNL     1      -1.024  -3.934  -0.128  1.00  0.00     0.210 HD
ENDBRANCH   2  21
BRANCH   7  23
ATOM     23  C   UNL     1      -4.921   0.059   0.489  1.00  0.00     0.028 C 
BRANCH  23  24
ATOM     24  C   UNL     1      -4.019   1.238   0.624  1.00  0.00     0.010 C 
BRANCH  24  25
ATOM     25  C   UNL     1      -4.695   2.553   0.772  1.00  0.00     0.053 C 
BRANCH  25  26
ATOM     26  C   UNL     1      -6.027   2.646   0.143  1.00  0.00     0.041 C 
ATOM     27  O   UNL     1      -6.268   3.596  -0.649  1.00  0.00    -0.550 OA
ATOM     28  O   UNL     1      -6.973   1.802   0.702  1.00  0.00    -0.550 OA
ENDBRANCH  25  26
ENDBRANCH  24  25
ENDBRANCH  23  24
ENDBRANCH   7  23
TORSDOF 11
