REMARK SMILES O=C([O-])[C@@H](S)[C@H](S)C(=O)[O-]
REMARK SMILES IDX 4 1 2 2 1 3 3 4 5 5 6 7 7 8 8 10 9 11 10 12
REMARK H PARENT 5 6 7 9
REMARK Flexibility Score: inf
ROOT
ATOM      1  C   UNL     1       0.406   0.004  -0.715  1.00  0.00     0.107 C 
ENDROOT
BRANCH   1   2
ATOM      2  C   UNL     1       1.680   0.167   0.163  1.00  0.00     0.056 C 
ATOM      3  O   UNL     1       1.674   1.048   1.061  1.00  0.00    -0.549 OA
ATOM      4  O   UNL     1       2.902  -0.057  -0.481  1.00  0.00    -0.549 OA
ENDBRANCH   1   2
BRANCH   1   5
ATOM      5  S   UNL     1       0.883  -1.693  -1.427  1.00  0.00    -0.168 SA
ATOM      6  H   UNL     1       1.302  -2.505  -0.421  1.00  0.00     0.103 HD
ENDBRANCH   1   5
BRANCH   1   7
ATOM      7  C   UNL     1      -0.514  -0.492   0.545  1.00  0.00     0.107 C 
BRANCH   7   8
ATOM      8  S   UNL     1      -1.484  -1.848  -0.365  1.00  0.00    -0.168 SA
ATOM      9  H   UNL     1      -1.947  -1.358  -1.547  1.00  0.00     0.103 HD
ENDBRANCH   7   8
BRANCH   7  10
ATOM     10  C   UNL     1      -1.555   0.650   0.372  1.00  0.00     0.056 C 
ATOM     11  O   UNL     1      -2.773   0.405   0.348  1.00  0.00    -0.549 OA
ATOM     12  O   UNL     1      -1.218   1.816   1.073  1.00  0.00    -0.549 OA
ENDBRANCH   7  10
ENDBRANCH   1   7
TORSDOF 5
