REMARK SMILES CC#CC[C@@H](C)[C@H](O)/C=C/[C@@H]1[C@H]2C/C(=C/CCCC(=O)[O-])C[C@H]2C[C@H]1O
REMARK SMILES IDX 11 1 25 2 24 3 23 4 22 5 14 6 15 7 13 8 12 9 10 10 9 11 7 12
REMARK SMILES IDX 5 13 6 14 4 15 3 16 1 17 2 18 8 19 26 21 16 23 17 24 18 25
REMARK SMILES IDX 19 26 20 27 21 28
REMARK H PARENT 8 20 26 22
REMARK Flexibility Score: inf
ROOT
ATOM      1  C   UNL     1      -0.661  -0.913   0.004  1.00  0.00     0.044 C 
ATOM      2  C   UNL     1       0.356  -2.092   0.724  1.00  0.00     0.121 C 
ATOM      3  C   UNL     1       1.369  -0.780   0.949  1.00  0.00     0.036 C 
ATOM      4  C   UNL     1       1.781  -1.273  -0.556  1.00  0.00    -0.000 C 
ATOM      5  C   UNL     1       2.664   0.063  -0.918  1.00  0.00     0.034 C 
ATOM      6  C   UNL     1       1.799   1.049  -0.336  1.00  0.00    -0.074 C 
ATOM      7  C   UNL     1       2.031   1.831   0.724  1.00  0.00    -0.028 C 
ATOM      8  C   UNL     1       0.554   0.855  -0.935  1.00  0.00     0.035 C 
ATOM      9  C   UNL     1       0.370  -0.701  -1.318  1.00  0.00     0.006 C 
ENDROOT
BRANCH   1  10
ATOM     10  C   UNL     1      -1.606  -2.008  -0.687  1.00  0.00    -0.022 C 
ATOM     11  C   UNL     1      -2.696  -1.483  -1.069  1.00  0.00     0.000 C 
BRANCH  11  12
ATOM     12  C   UNL     1      -4.176  -2.085  -0.716  1.00  0.00     0.140 C 
BRANCH  12  13
ATOM     13  C   UNL     1      -4.391  -1.044   0.668  1.00  0.00     0.030 C 
ATOM     14  C   UNL     1      -5.996  -0.928   0.426  1.00  0.00     0.012 C 
BRANCH  13  15
ATOM     15  C   UNL     1      -4.091   0.296  -0.204  1.00  0.00     0.095 C 
BRANCH  15  16
ATOM     16  C   UNL     1      -4.810   1.389   0.472  1.00  0.00    -0.103 C 
ATOM     17  C   UNL     1      -6.571   3.263   0.594  1.00  0.00     0.107 C 
ATOM     18  C   UNL     1      -5.613   2.297   0.501  1.00  0.00    -0.107 C 
ENDBRANCH  15  16
ENDBRANCH  13  15
ENDBRANCH  12  13
BRANCH  12  19
ATOM     19  O   UNL     1      -3.646  -3.239   0.160  1.00  0.00    -0.389 OA
ATOM     20  H   UNL     1      -2.982  -2.896   0.778  1.00  0.00     0.211 HD
ENDBRANCH  12  19
ENDBRANCH  11  12
ENDBRANCH   1  10
BRANCH   2  21
ATOM     21  O   UNL     1      -0.313  -1.861   2.089  1.00  0.00    -0.392 OA
ATOM     22  H   UNL     1      -0.456  -0.911   2.223  1.00  0.00     0.210 HD
ENDBRANCH   2  21
BRANCH   7  23
ATOM     23  C   UNL     1       3.355   2.479   0.793  1.00  0.00     0.028 C 
BRANCH  23  24
ATOM     24  C   UNL     1       4.448   1.579   1.278  1.00  0.00     0.010 C 
BRANCH  24  25
ATOM     25  C   UNL     1       5.775   1.984   0.711  1.00  0.00     0.053 C 
BRANCH  25  26
ATOM     26  C   UNL     1       6.468   0.819   0.121  1.00  0.00     0.041 C 
ATOM     27  O   UNL     1       6.336   0.529  -1.083  1.00  0.00    -0.550 OA
ATOM     28  O   UNL     1       7.266  -0.025   0.894  1.00  0.00    -0.550 OA
ENDBRANCH  25  26
ENDBRANCH  24  25
ENDBRANCH  23  24
ENDBRANCH   7  23
TORSDOF 11
