REMARK SMILES C[C@]([NH3+])(Cc1ccc(O)cc1)C(=O)[O-]
REMARK SMILES IDX 4 1 2 2 1 3 3 4 12 8 13 9 14 10 5 11 6 12 11 13 7 14 10 15
REMARK SMILES IDX 8 16 9 17
REMARK H PARENT 3 5 3 6 3 7 9 18
REMARK Flexibility Score: inf
ROOT
ATOM      1  C   UNL     1       0.779  -0.656   0.455  1.00  0.00     0.110 C 
ENDROOT
BRANCH   1   2
ATOM      2  C   UNL     1       1.739   0.247  -0.256  1.00  0.00     0.136 C 
ATOM      3  C   UNL     1       1.579   1.686   0.119  1.00  0.00     0.086 C 
BRANCH   2   4
ATOM      4  N   UNL     1       1.674   0.157  -1.692  1.00  0.00    -0.348 N 
ATOM      5  H   UNL     1       0.748   0.443  -2.009  1.00  0.00     0.345 HD
ATOM      6  H   UNL     1       1.851  -0.805  -1.980  1.00  0.00     0.345 HD
ATOM      7  H   UNL     1       2.379   0.770  -2.102  1.00  0.00     0.345 HD
ENDBRANCH   2   4
BRANCH   2   8
ATOM      8  C   UNL     1       3.111  -0.181   0.163  1.00  0.00     0.102 C 
ATOM      9  O   UNL     1       3.284  -0.764   1.276  1.00  0.00    -0.544 OA
ATOM     10  O   UNL     1       4.162  -0.097  -0.744  1.00  0.00    -0.544 OA
ENDBRANCH   2   8
ENDBRANCH   1   2
BRANCH   1  11
ATOM     11  C   UNL     1      -0.628  -0.466   0.073  1.00  0.00    -0.041 A 
ATOM     12  C   UNL     1      -1.550  -1.301   0.692  1.00  0.00     0.008 A 
ATOM     13  C   UNL     1      -1.096   0.471  -0.805  1.00  0.00     0.008 A 
ATOM     14  C   UNL     1      -2.874  -0.907   0.838  1.00  0.00     0.046 A 
ATOM     15  C   UNL     1      -2.463   0.715  -0.845  1.00  0.00     0.046 A 
ATOM     16  C   UNL     1      -3.303   0.203   0.122  1.00  0.00     0.115 A 
BRANCH  16  17
ATOM     17  O   UNL     1      -4.414   0.894   0.603  1.00  0.00    -0.508 OA
ATOM     18  H   UNL     1      -4.957   0.508   1.261  1.00  0.00     0.293 HD
ENDBRANCH  16  17
ENDBRANCH   1  11
TORSDOF 5
