REMARK SMILES CC(=O)N[C@@H](CS)C(=O)[O-]
REMARK SMILES IDX 6 1 5 2 4 3 1 4 2 5 3 6 8 8 9 9 10 10 7 11
REMARK H PARENT 4 7 7 12
REMARK Flexibility Score: inf
ROOT
ATOM      1  C   UNL     1      -0.349   1.119  -0.812  1.00  0.00     0.097 C 
ENDROOT
BRANCH   1   2
ATOM      2  C   UNL     1      -0.524   0.209   0.550  1.00  0.00     0.137 C 
BRANCH   2   3
ATOM      3  N   UNL     1       0.796  -0.633   0.339  1.00  0.00    -0.347 N 
ATOM      4  C   UNL     1       3.131  -0.830  -0.197  1.00  0.00     0.114 C 
ATOM      5  C   UNL     1       1.926   0.010  -0.100  1.00  0.00     0.217 C 
ATOM      6  O   UNL     1       1.778   0.945  -0.924  1.00  0.00    -0.275 OA
ATOM      7  H   UNL     1       0.807  -1.601   0.519  1.00  0.00     0.164 HD
ENDBRANCH   2   3
BRANCH   2   8
ATOM      8  C   UNL     1      -1.419  -0.907  -0.205  1.00  0.00     0.065 C 
ATOM      9  O   UNL     1      -1.251  -2.078   0.265  1.00  0.00    -0.548 OA
ATOM     10  O   UNL     1      -2.741  -0.454  -0.371  1.00  0.00    -0.548 OA
ENDBRANCH   2   8
ENDBRANCH   1   2
BRANCH   1  11
ATOM     11  S   UNL     1      -1.346   2.619  -0.554  1.00  0.00    -0.177 SA
ATOM     12  H   UNL     1      -2.642   2.269  -0.332  1.00  0.00     0.102 HD
ENDBRANCH   1  11
TORSDOF 4
