REMARK SMILES O=C([O-])CCC[NH+]1CCC(O[C@@H](c2ccc(Cl)cc2)c2ccccn2)CC1
REMARK SMILES IDX 7 1 8 2 9 3 10 4 26 5 27 6 6 8 5 9 4 10 2 11 1 12 3 13 11 14
REMARK SMILES IDX 12 15 13 16 14 17 19 18 15 19 18 20 16 21 17 22 20 23 21 24
REMARK SMILES IDX 25 25 22 26 24 27 23 28
REMARK H PARENT 7 7
REMARK Flexibility Score: inf
ROOT
ATOM      1  N   UNL     1       2.754   0.826  -0.509  1.00  0.00    -0.335 N 
ATOM      2  C   UNL     1       2.437   0.925  -1.904  1.00  0.00     0.264 C 
ATOM      3  C   UNL     1       1.198   0.066  -2.143  1.00  0.00     0.093 C 
ATOM      4  C   UNL     1       0.460  -0.025  -0.845  1.00  0.00     0.130 C 
ATOM      5  C   UNL     1       0.448   1.337  -0.219  1.00  0.00     0.093 C 
ATOM      6  C   UNL     1       1.855   1.581   0.319  1.00  0.00     0.264 C 
ATOM      7  H   UNL     1       2.578  -0.151  -0.273  1.00  0.00     0.348 HD
ENDROOT
BRANCH   1   8
ATOM      8  C   UNL     1       4.133   0.952  -0.180  1.00  0.00     0.262 C 
BRANCH   8   9
ATOM      9  C   UNL     1       4.674  -0.359   0.376  1.00  0.00     0.067 C 
BRANCH   9  10
ATOM     10  C   UNL     1       6.062  -0.197   0.928  1.00  0.00     0.058 C 
BRANCH  10  11
ATOM     11  C   UNL     1       7.113  -0.236  -0.106  1.00  0.00     0.042 C 
ATOM     12  O   UNL     1       7.425   0.742  -0.632  1.00  0.00    -0.550 OA
ATOM     13  O   UNL     1       7.892  -1.379  -0.300  1.00  0.00    -0.550 OA
ENDBRANCH  10  11
ENDBRANCH   9  10
ENDBRANCH   8   9
ENDBRANCH   1   8
BRANCH   4  14
ATOM     14  O   UNL     1      -0.766  -0.648  -0.890  1.00  0.00    -0.363 OA
BRANCH  14  15
ATOM     15  C   UNL     1      -1.748   0.364  -0.262  1.00  0.00     0.197 C 
BRANCH  15  16
ATOM     16  C   UNL     1      -3.027  -0.322  -1.032  1.00  0.00    -0.013 A 
ATOM     17  C   UNL     1      -3.791   0.629  -1.709  1.00  0.00     0.008 A 
ATOM     18  C   UNL     1      -3.749  -1.269  -0.412  1.00  0.00     0.008 A 
ATOM     19  C   UNL     1      -5.166   0.733  -1.528  1.00  0.00     0.021 A 
ATOM     20  C   UNL     1      -5.140  -1.360  -0.510  1.00  0.00     0.021 A 
ATOM     21  C   UNL     1      -5.812  -0.154  -0.674  1.00  0.00     0.041 A 
ATOM     22  Cl  UNL     1      -7.096   0.363   0.415  1.00  0.00    -0.084 Cl
ENDBRANCH  15  16
BRANCH  15  23
ATOM     23  C   UNL     1      -1.903  -0.511   1.125  1.00  0.00     0.074 A 
ATOM     24  C   UNL     1      -2.712   0.280   1.942  1.00  0.00     0.027 A 
ATOM     25  N   UNL     1      -0.768  -0.907   1.675  1.00  0.00    -0.258 NA
ATOM     26  C   UNL     1      -2.581   0.207   3.313  1.00  0.00     0.004 A 
ATOM     27  C   UNL     1      -0.674  -1.152   2.990  1.00  0.00     0.111 A 
ATOM     28  C   UNL     1      -1.517  -0.484   3.870  1.00  0.00     0.020 A 
ENDBRANCH  15  23
ENDBRANCH  14  15
ENDBRANCH   4  14
TORSDOF 8
