REMARK SMILES Cc1onc(-c2c(Cl)cccc2Cl)c1C(=O)N[C@@H]1C(=O)N2[C@@H]1SC(C)(C)[C@@H]2C(=O)[O-]
REMARK SMILES IDX 15 1 16 2 17 3 14 5 1 6 2 7 3 8 4 9 5 10 6 11 7 12 12 13
REMARK SMILES IDX 8 14 9 15 11 16 13 17 10 18 18 19 19 20 22 21 20 22 21 23
REMARK SMILES IDX 23 24 27 25 24 26 25 27 26 28 28 29 29 30 30 31
REMARK H PARENT 17 4
REMARK Flexibility Score: inf
ROOT
ATOM      1  C   UNL     1      -0.633  -0.758  -1.343  1.00  0.00     0.257 C 
ATOM      2  O   UNL     1      -0.823  -1.979  -1.051  1.00  0.00    -0.269 OA
ATOM      3  N   UNL     1       0.700  -0.322  -1.045  1.00  0.00    -0.337 N 
ATOM      4  H   UNL     1       1.367  -0.038  -1.711  1.00  0.00     0.164 HD
ENDROOT
BRANCH   1   5
ATOM      5  C   UNL     1      -1.757   0.089  -1.715  1.00  0.00     0.110 A 
ATOM      6  C   UNL     1      -0.691   1.688  -3.311  1.00  0.00     0.092 C 
ATOM      7  C   UNL     1      -1.760   1.232  -2.501  1.00  0.00     0.147 A 
ATOM      8  O   UNL     1      -2.965   1.774  -2.483  1.00  0.00    -0.360 OA
ATOM      9  N   UNL     1      -3.633   1.221  -1.527  1.00  0.00    -0.079 NA
ATOM     10  C   UNL     1      -2.987   0.125  -1.056  1.00  0.00     0.129 A 
BRANCH  10  11
ATOM     11  C   UNL     1      -3.290  -0.378   0.295  1.00  0.00     0.042 A 
ATOM     12  C   UNL     1      -3.430   0.498   1.368  1.00  0.00     0.052 A 
ATOM     13  C   UNL     1      -3.834  -1.652   0.389  1.00  0.00     0.052 A 
ATOM     14  Cl  UNL     1      -3.446   2.238   1.085  1.00  0.00    -0.084 Cl
ATOM     15  C   UNL     1      -4.002   0.091   2.568  1.00  0.00     0.021 A 
ATOM     16  C   UNL     1      -4.264  -2.072   1.641  1.00  0.00     0.021 A 
ATOM     17  Cl  UNL     1      -4.551  -2.474  -0.986  1.00  0.00    -0.084 Cl
ATOM     18  C   UNL     1      -4.250  -1.247   2.749  1.00  0.00     0.003 A 
ENDBRANCH  10  11
ENDBRANCH   1   5
BRANCH   3  19
ATOM     19  C   UNL     1       0.935  -0.365   0.519  1.00  0.00     0.205 C 
ATOM     20  C   UNL     1       1.471   1.147   0.568  1.00  0.00     0.249 C 
ATOM     21  C   UNL     1       2.556  -0.763   0.605  1.00  0.00     0.176 C 
ATOM     22  O   UNL     1       0.734   2.119   0.640  1.00  0.00    -0.272 OA
ATOM     23  N   UNL     1       2.767   0.723   0.412  1.00  0.00    -0.317 N 
ATOM     24  S   UNL     1       3.148  -0.947  -1.197  1.00  0.00    -0.125 SA
ATOM     25  C   UNL     1       4.318   0.879   0.484  1.00  0.00     0.148 C 
ATOM     26  C   UNL     1       4.685  -0.331  -0.566  1.00  0.00     0.038 C 
ATOM     27  C   UNL     1       5.343  -1.432   0.148  1.00  0.00     0.025 C 
ATOM     28  C   UNL     1       5.618   0.270  -1.569  1.00  0.00     0.025 C 
BRANCH  25  29
ATOM     29  C   UNL     1       4.414   0.032   1.871  1.00  0.00     0.065 C 
ATOM     30  O   UNL     1       3.895   0.824   2.731  1.00  0.00    -0.548 OA
ATOM     31  O   UNL     1       5.733  -0.229   2.276  1.00  0.00    -0.548 OA
ENDBRANCH  25  29
ENDBRANCH   3  19
TORSDOF 4
