REMARK SMILES Cc1ccc(/C(=C/C[NH+]2CCCC2)c2cccc(/C=C/C(=O)[O-])n2)cc1
REMARK SMILES IDX 14 1 15 2 16 3 17 4 18 5 24 6 6 7 7 8 5 9 1 10 2 11 3 12
REMARK SMILES IDX 26 13 4 14 25 15 8 16 9 17 10 18 13 20 11 21 12 22 19 23
REMARK SMILES IDX 20 24 21 25 22 26 23 27
REMARK H PARENT 9 19
REMARK Flexibility Score: inf
ROOT
ATOM      1  C   UNL     1       0.069  -0.188   0.208  1.00  0.00     0.071 A 
ATOM      2  C   UNL     1      -0.135  -1.224   1.111  1.00  0.00     0.029 A 
ATOM      3  C   UNL     1       0.911  -1.791   1.823  1.00  0.00     0.004 A 
ATOM      4  C   UNL     1       2.171  -1.284   1.532  1.00  0.00     0.028 A 
ATOM      5  C   UNL     1       2.369  -0.730   0.278  1.00  0.00     0.064 A 
ATOM      6  N   UNL     1       1.334  -0.072  -0.267  1.00  0.00    -0.248 NA
ENDROOT
BRANCH   1   7
ATOM      7  C   UNL     1      -1.068   0.475  -0.426  1.00  0.00     0.009 C 
ATOM      8  C   UNL     1      -2.241  -0.148  -0.400  1.00  0.00     0.044 C 
BRANCH   7   9
ATOM      9  C   UNL     1      -1.035   1.931  -0.618  1.00  0.00    -0.016 A 
ATOM     10  C   UNL     1      -2.126   5.855   0.489  1.00  0.00     0.044 C 
ATOM     11  C   UNL     1      -1.575   4.631  -0.127  1.00  0.00    -0.051 A 
ATOM     12  C   UNL     1      -2.417   3.894  -0.942  1.00  0.00     0.004 A 
ATOM     13  C   UNL     1      -0.365   4.074   0.229  1.00  0.00     0.004 A 
ATOM     14  C   UNL     1      -2.109   2.564  -1.205  1.00  0.00     0.009 A 
ATOM     15  C   UNL     1      -0.226   2.711   0.188  1.00  0.00     0.009 A 
ENDBRANCH   7   9
BRANCH   8  16
ATOM     16  C   UNL     1      -2.553  -1.240   0.563  1.00  0.00     0.291 C 
BRANCH  16  17
ATOM     17  N   UNL     1      -3.753  -1.905   0.073  1.00  0.00    -0.332 N 
ATOM     18  C   UNL     1      -3.397  -2.565  -1.159  1.00  0.00     0.262 C 
ATOM     19  H   UNL     1      -4.524  -1.252  -0.066  1.00  0.00     0.348 HD
ATOM     20  C   UNL     1      -4.093  -2.921   1.034  1.00  0.00     0.262 C 
ATOM     21  C   UNL     1      -3.097  -4.000  -0.831  1.00  0.00     0.067 C 
ATOM     22  C   UNL     1      -4.032  -4.252   0.339  1.00  0.00     0.067 C 
ENDBRANCH  16  17
ENDBRANCH   8  16
ENDBRANCH   1   7
BRANCH   5  23
ATOM     23  C   UNL     1       3.636  -0.886  -0.445  1.00  0.00     0.030 C 
ATOM     24  C   UNL     1       4.681  -1.380   0.173  1.00  0.00     0.027 C 
BRANCH  24  25
ATOM     25  C   UNL     1       6.046  -0.877  -0.007  1.00  0.00     0.064 C 
ATOM     26  O   UNL     1       6.720  -0.477   0.990  1.00  0.00    -0.545 OA
ATOM     27  O   UNL     1       6.283  -0.191  -1.203  1.00  0.00    -0.545 OA
ENDBRANCH  24  25
ENDBRANCH   5  23
TORSDOF 6
