REMARK SMILES Cc1ccc(Cl)c(Nc2ccccc2C(=O)[O-])c1Cl
REMARK SMILES IDX 9 1 10 2 11 3 12 4 13 5 14 6 8 7 7 9 1 10 2 11 3 12 18 13
REMARK SMILES IDX 4 14 19 15 5 16 6 17 15 18 16 19 17 20
REMARK H PARENT 8 8
REMARK Flexibility Score: inf
ROOT
ATOM      1  C   UNL     1      -1.222  -0.252  -0.291  1.00  0.00     0.048 A 
ATOM      2  C   UNL     1      -1.254  -1.520  -0.797  1.00  0.00     0.027 A 
ATOM      3  C   UNL     1      -2.417  -2.272  -0.712  1.00  0.00     0.002 A 
ATOM      4  C   UNL     1      -3.619  -1.617  -0.607  1.00  0.00     0.001 A 
ATOM      5  C   UNL     1      -3.644  -0.257  -0.327  1.00  0.00     0.012 A 
ATOM      6  C   UNL     1      -2.440   0.311   0.070  1.00  0.00     0.021 A 
ENDROOT
BRANCH   1   7
ATOM      7  N   UNL     1      -0.062   0.452   0.085  1.00  0.00    -0.353 N 
ATOM      8  H   UNL     1      -0.181   1.228   0.679  1.00  0.00     0.167 HD
BRANCH   7   9
ATOM      9  C   UNL     1       1.254   0.144  -0.314  1.00  0.00     0.077 A 
ATOM     10  C   UNL     1       4.037  -2.018   1.053  1.00  0.00     0.046 C 
ATOM     11  C   UNL     1       3.287  -0.975   0.288  1.00  0.00    -0.030 A 
ATOM     12  C   UNL     1       4.042   0.119  -0.117  1.00  0.00     0.006 A 
ATOM     13  C   UNL     1       1.913  -0.839   0.406  1.00  0.00     0.069 A 
ATOM     14  C   UNL     1       3.401   1.206  -0.662  1.00  0.00     0.023 A 
ATOM     15  Cl  UNL     1       1.038  -1.799   1.594  1.00  0.00    -0.082 Cl
ATOM     16  C   UNL     1       2.048   1.087  -0.947  1.00  0.00     0.066 A 
ATOM     17  Cl  UNL     1       1.286   2.427  -1.799  1.00  0.00    -0.082 Cl
ENDBRANCH   7   9
ENDBRANCH   1   7
BRANCH   6  18
ATOM     18  C   UNL     1      -2.470   1.594   0.769  1.00  0.00     0.074 C 
ATOM     19  O   UNL     1      -2.863   2.608   0.157  1.00  0.00    -0.545 OA
ATOM     20  O   UNL     1      -2.316   1.600   2.151  1.00  0.00    -0.545 OA
ENDBRANCH   6  18
TORSDOF 3
