REMARK SMILES [NH3+]C[C@H]1CC[C@H](C(=O)[O-])CC1
REMARK SMILES IDX 3 1 11 2 10 3 6 4 5 5 4 6 2 7 1 8 7 12 8 13 9 14
REMARK H PARENT 1 9 1 10 1 11
REMARK Flexibility Score: inf
ROOT
ATOM      1  C   UNL     1       1.695  -1.197   0.421  1.00  0.00     0.044 C 
ATOM      2  C   UNL     1       0.806  -0.131   1.275  1.00  0.00     0.010 C 
ATOM      3  C   UNL     1       0.265   0.906   0.465  1.00  0.00     0.010 C 
ATOM      4  C   UNL     1      -0.988   0.435  -0.466  1.00  0.00     0.035 C 
ATOM      5  C   UNL     1      -0.649  -1.162  -0.343  1.00  0.00     0.010 C 
ATOM      6  C   UNL     1       0.760  -1.112  -0.913  1.00  0.00     0.010 C 
ENDROOT
BRANCH   1   7
ATOM      7  C   UNL     1       2.721  -0.060  -0.144  1.00  0.00     0.262 C 
BRANCH   7   8
ATOM      8  N   UNL     1       2.900   0.562   0.250  1.00  0.00    -0.357 N 
ATOM      9  H   UNL     1       3.553   1.130  -0.290  1.00  0.00     0.344 HD
ATOM     10  H   UNL     1       3.334   0.293   1.133  1.00  0.00     0.344 HD
ATOM     11  H   UNL     1       2.055   1.101   0.437  1.00  0.00     0.344 HD
ENDBRANCH   7   8
ENDBRANCH   1   7
BRANCH   4  12
ATOM     12  C   UNL     1      -2.035   0.401   0.755  1.00  0.00     0.044 C 
ATOM     13  O   UNL     1      -3.000  -0.359   0.419  1.00  0.00    -0.550 OA
ATOM     14  O   UNL     1      -2.476   1.717   0.965  1.00  0.00    -0.550 OA
ENDBRANCH   4  12
TORSDOF 3
