REMARK SMILES COc1cc(O)c(C(=O)c2ccccc2)cc1S(=O)(=O)[O-]
REMARK SMILES IDX 3 1 4 2 5 3 7 4 16 5 17 6 2 7 1 8 18 9 19 10 20 11 21 12
REMARK SMILES IDX 6 13 8 15 9 16 10 17 11 18 15 19 12 20 14 21 13 22
REMARK H PARENT 6 14
REMARK Flexibility Score: inf
ROOT
ATOM      1  C   UNL     1      -1.963   1.076   0.350  1.00  0.00     0.140 A 
ATOM      2  C   UNL     1      -0.786   1.683  -0.072  1.00  0.00     0.094 A 
ATOM      3  C   UNL     1       0.299   0.887  -0.421  1.00  0.00     0.130 A 
ATOM      4  C   UNL     1       0.197  -0.460  -0.089  1.00  0.00     0.066 A 
ATOM      5  C   UNL     1      -1.035  -1.070   0.128  1.00  0.00     0.039 A 
ATOM      6  C   UNL     1      -2.179  -0.291   0.227  1.00  0.00     0.097 A 
ENDROOT
BRANCH   1   7
ATOM      7  O   UNL     1      -3.007   1.790   0.937  1.00  0.00    -0.495 OA
ATOM      8  C   UNL     1      -3.257   3.134   0.573  1.00  0.00     0.278 C 
ENDBRANCH   1   7
BRANCH   6   9
ATOM      9  S   UNL     1      -3.722  -0.844  -0.389  1.00  0.00     0.128 S 
ATOM     10  O   UNL     1      -3.584  -1.116  -1.871  1.00  0.00    -0.237 OA
ATOM     11  O   UNL     1      -4.757   0.201  -0.203  1.00  0.00    -0.237 OA
ATOM     12  O   UNL     1      -4.202  -2.266   0.328  1.00  0.00    -0.744 OA
ENDBRANCH   6   9
BRANCH   3  13
ATOM     13  O   UNL     1       1.155   1.224  -1.475  1.00  0.00    -0.507 OA
ATOM     14  H   UNL     1       1.253   2.120  -1.732  1.00  0.00     0.293 HD
ENDBRANCH   3  13
BRANCH   4  15
ATOM     15  C   UNL     1       1.424  -1.253  -0.054  1.00  0.00     0.196 C 
ATOM     16  O   UNL     1       1.398  -2.303   0.658  1.00  0.00    -0.288 OA
BRANCH  15  17
ATOM     17  C   UNL     1       2.723  -0.593  -0.129  1.00  0.00     0.023 A 
ATOM     18  C   UNL     1       3.045   0.363   0.827  1.00  0.00     0.012 A 
ATOM     19  C   UNL     1       3.808  -1.222  -0.727  1.00  0.00     0.012 A 
ATOM     20  C   UNL     1       4.173   1.141   0.611  1.00  0.00     0.001 A 
ATOM     21  C   UNL     1       5.062  -0.667  -0.642  1.00  0.00     0.001 A 
ATOM     22  C   UNL     1       5.209   0.585  -0.093  1.00  0.00     0.000 A 
ENDBRANCH  15  17
ENDBRANCH   4  15
TORSDOF 5
