REMARK SMILES Cc1ccc(/C(=C\C[NH+]2CCCC2)c2cccc(/C=C\C(=O)[O-])n2)cc1
REMARK SMILES IDX 14 1 15 2 16 3 17 4 18 5 24 6 6 7 7 8 5 9 1 10 2 11 3 12
REMARK SMILES IDX 26 13 4 14 25 15 8 16 9 17 10 18 13 20 11 21 12 22 19 23
REMARK SMILES IDX 20 24 21 25 22 26 23 27
REMARK H PARENT 9 19
REMARK Flexibility Score: inf
ROOT
ATOM      1  C   UNL     1       0.503  -0.128  -0.464  1.00  0.00     0.071 A 
ATOM      2  C   UNL     1       0.641  -0.948  -1.576  1.00  0.00     0.029 A 
ATOM      3  C   UNL     1       1.863  -1.567  -1.805  1.00  0.00     0.004 A 
ATOM      4  C   UNL     1       2.995  -0.997  -1.253  1.00  0.00     0.028 A 
ATOM      5  C   UNL     1       2.865   0.056  -0.366  1.00  0.00     0.064 A 
ATOM      6  N   UNL     1       1.625   0.388   0.066  1.00  0.00    -0.248 NA
ENDROOT
BRANCH   1   7
ATOM      7  C   UNL     1      -0.783   0.007   0.226  1.00  0.00     0.009 C 
ATOM      8  C   UNL     1      -1.539  -1.071   0.437  1.00  0.00     0.044 C 
BRANCH   7   9
ATOM      9  C   UNL     1      -1.203   1.219   0.902  1.00  0.00    -0.016 A 
ATOM     10  C   UNL     1      -2.376   5.237   0.572  1.00  0.00     0.044 C 
ATOM     11  C   UNL     1      -2.040   3.862   1.019  1.00  0.00    -0.051 A 
ATOM     12  C   UNL     1      -2.975   2.855   1.135  1.00  0.00     0.004 A 
ATOM     13  C   UNL     1      -0.717   3.559   1.305  1.00  0.00     0.004 A 
ATOM     14  C   UNL     1      -2.549   1.543   0.972  1.00  0.00     0.009 A 
ATOM     15  C   UNL     1      -0.316   2.230   1.246  1.00  0.00     0.009 A 
ENDBRANCH   7   9
BRANCH   8  16
ATOM     16  C   UNL     1      -3.029  -0.936   0.462  1.00  0.00     0.291 C 
BRANCH  16  17
ATOM     17  N   UNL     1      -3.511  -1.835  -0.585  1.00  0.00    -0.332 N 
ATOM     18  C   UNL     1      -4.881  -2.205  -0.397  1.00  0.00     0.262 C 
ATOM     19  H   UNL     1      -3.432  -1.314  -1.458  1.00  0.00     0.348 HD
ATOM     20  C   UNL     1      -2.714  -3.025  -0.664  1.00  0.00     0.262 C 
ATOM     21  C   UNL     1      -4.983  -3.699  -0.437  1.00  0.00     0.067 C 
ATOM     22  C   UNL     1      -3.632  -4.196  -0.854  1.00  0.00     0.067 C 
ENDBRANCH  16  17
ENDBRANCH   8  16
ENDBRANCH   1   7
BRANCH   5  23
ATOM     23  C   UNL     1       3.881   1.106  -0.232  1.00  0.00     0.030 C 
ATOM     24  C   UNL     1       5.081   0.872   0.291  1.00  0.00     0.027 C 
BRANCH  24  25
ATOM     25  C   UNL     1       5.642  -0.445  -0.001  1.00  0.00     0.064 C 
ATOM     26  O   UNL     1       5.334  -1.390   0.756  1.00  0.00    -0.545 OA
ATOM     27  O   UNL     1       6.819  -0.492  -0.753  1.00  0.00    -0.545 OA
ENDBRANCH  24  25
ENDBRANCH   5  23
TORSDOF 6
