REMARK SMILES CO/N=C1\CN(c2nc3c(cc2F)c(=O)c(C(=O)[O-])cn3C2CC2)C[C@@H]1C[NH3+]
REMARK SMILES IDX 3 1 4 2 5 3 6 4 25 5 26 6 2 7 1 8 27 9 28 10 7 14 8 15 12 16
REMARK SMILES IDX 9 17 11 18 13 19 10 20 21 21 14 22 20 23 15 24 16 25 22 26
REMARK SMILES IDX 23 27 24 28 17 29 18 30 19 31
REMARK H PARENT 28 11 28 12 28 13
REMARK Flexibility Score: inf
ROOT
ATOM      1  N   UNL     1      -5.649   0.373  -0.421  1.00  0.00    -0.094 NA
ATOM      2  C   UNL     1      -4.517  -0.237  -0.367  1.00  0.00     0.087 C 
ATOM      3  C   UNL     1      -3.378  -0.120  -1.280  1.00  0.00     0.173 C 
ATOM      4  N   UNL     1      -2.225   0.277  -0.520  1.00  0.00    -0.348 N 
ATOM      5  C   UNL     1      -2.716   0.779   0.730  1.00  0.00     0.134 C 
ATOM      6  C   UNL     1      -3.851  -0.357   1.103  1.00  0.00     0.113 C 
ENDROOT
BRANCH   1   7
ATOM      7  O   UNL     1      -5.933   1.270  -1.439  1.00  0.00    -0.399 OA
ATOM      8  C   UNL     1      -5.741   2.591  -1.107  1.00  0.00     0.315 C 
ENDBRANCH   1   7
BRANCH   6   9
ATOM      9  C   UNL     1      -2.883  -1.613   0.637  1.00  0.00     0.270 C 
BRANCH   9  10
ATOM     10  N   UNL     1      -3.798  -2.750   0.545  1.00  0.00    -0.357 N 
ATOM     11  H   UNL     1      -4.257  -2.891   1.445  1.00  0.00     0.344 HD
ATOM     12  H   UNL     1      -3.274  -3.589   0.295  1.00  0.00     0.344 HD
ATOM     13  H   UNL     1      -4.501  -2.563  -0.170  1.00  0.00     0.344 HD
ENDBRANCH   9  10
ENDBRANCH   6   9
BRANCH   4  14
ATOM     14  C   UNL     1      -0.869  -0.132  -0.731  1.00  0.00     0.167 A 
ATOM     15  N   UNL     1       0.034  -0.065   0.278  1.00  0.00    -0.210 NA
ATOM     16  C   UNL     1      -0.447  -0.764  -1.877  1.00  0.00     0.166 A 
ATOM     17  C   UNL     1       1.361  -0.023   0.060  1.00  0.00     0.146 A 
ATOM     18  C   UNL     1       0.908  -1.024  -2.051  1.00  0.00     0.059 A 
ATOM     19  F   UNL     1      -1.380  -1.259  -2.741  1.00  0.00    -0.203 F 
ATOM     20  C   UNL     1       1.807  -0.695  -1.043  1.00  0.00     0.069 A 
ATOM     21  N   UNL     1       2.168   0.429   1.050  1.00  0.00    -0.328 N 
ATOM     22  C   UNL     1       3.168  -0.605  -1.306  1.00  0.00     0.200 A 
ATOM     23  C   UNL     1       3.437   0.703   0.725  1.00  0.00     0.102 A 
ATOM     24  O   UNL     1       3.636  -1.337  -2.206  1.00  0.00    -0.288 OA
ATOM     25  C   UNL     1       3.970   0.053  -0.382  1.00  0.00     0.062 A 
BRANCH  21  26
ATOM     26  C   UNL     1       1.548   0.766   2.302  1.00  0.00     0.089 C 
ATOM     27  C   UNL     1       1.963   1.906   3.125  1.00  0.00     0.027 C 
ATOM     28  C   UNL     1       2.120   0.437   3.609  1.00  0.00     0.027 C 
ENDBRANCH  21  26
BRANCH  25  29
ATOM     29  C   UNL     1       5.344   0.336  -0.744  1.00  0.00     0.077 C 
ATOM     30  O   UNL     1       6.198  -0.570  -0.631  1.00  0.00    -0.545 OA
ATOM     31  O   UNL     1       5.723   1.633  -1.081  1.00  0.00    -0.545 OA
ENDBRANCH  25  29
ENDBRANCH   4  14
TORSDOF 6
