REMARK SMILES CC(C)Cc1ccc([C@H](C)C(=O)[O-])cc1
REMARK SMILES IDX 5 1 6 2 7 3 8 4 14 5 15 6 4 7 2 8 1 9 3 10 9 11 10 12 11 13
REMARK SMILES IDX 12 14 13 15
REMARK H PARENT
REMARK Flexibility Score: inf
ROOT
ATOM      1  C   UNL     1       1.481   0.146   0.520  1.00  0.00    -0.048 A 
ATOM      2  C   UNL     1       0.632   0.189  -0.585  1.00  0.00     0.004 A 
ATOM      3  C   UNL     1      -0.738   0.029  -0.423  1.00  0.00     0.004 A 
ATOM      4  C   UNL     1      -1.201  -0.001   0.819  1.00  0.00    -0.040 A 
ATOM      5  C   UNL     1      -0.468   0.346   1.931  1.00  0.00     0.004 A 
ATOM      6  C   UNL     1       0.883   0.582   1.700  1.00  0.00     0.004 A 
ENDROOT
BRANCH   1   7
ATOM      7  C   UNL     1       2.880   0.478   0.206  1.00  0.00     0.038 C 
BRANCH   7   8
ATOM      8  C   UNL     1       3.902  -0.519   0.452  1.00  0.00    -0.013 C 
ATOM      9  C   UNL     1       3.873  -1.755   0.069  1.00  0.00     0.008 C 
ATOM     10  C   UNL     1       5.247   0.155   0.542  1.00  0.00     0.008 C 
ENDBRANCH   7   8
ENDBRANCH   1   7
BRANCH   4  11
ATOM     11  C   UNL     1      -2.767  -0.111   1.150  1.00  0.00     0.062 C 
ATOM     12  C   UNL     1      -2.828  -1.687   0.688  1.00  0.00     0.019 C 
BRANCH  11  13
ATOM     13  C   UNL     1      -3.264   0.437  -0.283  1.00  0.00     0.049 C 
ATOM     14  O   UNL     1      -4.256  -0.122  -0.773  1.00  0.00    -0.550 OA
ATOM     15  O   UNL     1      -3.377   1.831  -0.174  1.00  0.00    -0.550 OA
ENDBRANCH  11  13
ENDBRANCH   4  11
TORSDOF 4
