REMARK SMILES CC1=C(CC(=O)[O-])c2cc(F)ccc2/C1=C\c1ccc([S@@](C)=O)cc1
REMARK SMILES IDX 1 1 2 2 3 3 8 4 9 5 10 6 11 7 12 8 13 9 14 10 15 11 16 12
REMARK SMILES IDX 4 13 5 14 6 15 7 16 17 17 18 18 25 19 19 20 24 21 20 22
REMARK SMILES IDX 21 23 22 24 23 25
REMARK H PARENT
REMARK Flexibility Score: inf
ROOT
ATOM      1  C   UNL     1       1.672  -0.534   3.514  1.00  0.00     0.045 C 
ATOM      2  C   UNL     1       1.602  -0.466   2.060  1.00  0.00    -0.039 C 
ATOM      3  C   UNL     1       2.501   0.118   1.269  1.00  0.00    -0.031 C 
ATOM      4  C   UNL     1       2.099  -0.127  -0.121  1.00  0.00    -0.011 A 
ATOM      5  C   UNL     1       2.871  -0.188  -1.274  1.00  0.00     0.048 A 
ATOM      6  C   UNL     1       2.316  -0.686  -2.445  1.00  0.00     0.123 A 
ATOM      7  F   UNL     1       2.995  -0.395  -3.592  1.00  0.00    -0.207 F 
ATOM      8  C   UNL     1       0.958  -0.964  -2.481  1.00  0.00     0.040 A 
ATOM      9  C   UNL     1       0.156  -0.869  -1.350  1.00  0.00     0.012 A 
ATOM     10  C   UNL     1       0.820  -0.668  -0.150  1.00  0.00    -0.010 A 
ATOM     11  C   UNL     1       0.510  -0.986   1.247  1.00  0.00    -0.014 C 
ATOM     12  C   UNL     1      -0.644  -1.518   1.607  1.00  0.00     0.017 C 
ENDROOT
BRANCH   3  13
ATOM     13  C   UNL     1       3.393   1.231   1.670  1.00  0.00     0.089 C 
BRANCH  13  14
ATOM     14  C   UNL     1       3.847   2.034   0.495  1.00  0.00     0.046 C 
ATOM     15  O   UNL     1       4.965   1.722  -0.016  1.00  0.00    -0.550 OA
ATOM     16  O   UNL     1       3.507   3.385   0.405  1.00  0.00    -0.550 OA
ENDBRANCH  13  14
ENDBRANCH   3  13
BRANCH  12  17
ATOM     17  C   UNL     1      -1.852  -1.156   0.854  1.00  0.00    -0.025 A 
ATOM     18  C   UNL     1      -2.608  -0.127   1.401  1.00  0.00     0.009 A 
ATOM     19  C   UNL     1      -2.560  -2.078   0.102  1.00  0.00     0.009 A 
ATOM     20  C   UNL     1      -3.484   0.499   0.521  1.00  0.00     0.018 A 
ATOM     21  C   UNL     1      -3.640  -1.583  -0.619  1.00  0.00     0.018 A 
ATOM     22  C   UNL     1      -3.989  -0.243  -0.516  1.00  0.00     0.039 A 
BRANCH  22  23
ATOM     23  S   UNL     1      -4.954   0.540  -1.834  1.00  0.00     0.050 S 
ATOM     24  C   UNL     1      -6.357   1.220  -0.856  1.00  0.00     0.129 C 
ATOM     25  O   UNL     1      -4.124   1.839  -2.058  1.00  0.00    -0.255 OA
ENDBRANCH  22  23
ENDBRANCH  12  17
TORSDOF 4
