REMARK SMILES O=C([O-])c1cc(/N=N/c2ccc(O)c(C(=O)[O-])c2)ccc1O
REMARK SMILES IDX 7 1 8 2 6 3 4 4 5 5 21 6 20 7 19 8 2 9 1 10 3 11 22 12 9 14
REMARK SMILES IDX 10 15 18 16 11 17 14 18 12 19 15 20 16 21 17 22 13 23
REMARK H PARENT 22 13 13 24
REMARK Flexibility Score: inf
ROOT
ATOM      1  N   UNL     1      -0.335  -1.438  -1.241  1.00  0.00    -0.151 NA
ATOM      2  N   UNL     1       0.386  -0.416  -1.121  1.00  0.00    -0.151 NA
ENDROOT
BRANCH   1   3
ATOM      3  C   UNL     1      -1.766  -1.423  -1.140  1.00  0.00     0.087 A 
ATOM      4  C   UNL     1      -3.618   0.019  -0.510  1.00  0.00     0.041 A 
ATOM      5  C   UNL     1      -2.493  -0.244  -1.239  1.00  0.00     0.044 A 
ATOM      6  C   UNL     1      -3.998  -0.864   0.481  1.00  0.00     0.124 A 
ATOM      7  C   UNL     1      -3.431  -2.118   0.474  1.00  0.00     0.049 A 
ATOM      8  C   UNL     1      -2.356  -2.409  -0.358  1.00  0.00     0.034 A 
BRANCH   4   9
ATOM      9  C   UNL     1      -4.218   1.355  -0.590  1.00  0.00     0.075 C 
ATOM     10  O   UNL     1      -5.484   1.407  -0.610  1.00  0.00    -0.545 OA
ATOM     11  O   UNL     1      -3.513   2.430  -1.117  1.00  0.00    -0.545 OA
ENDBRANCH   4   9
BRANCH   6  12
ATOM     12  O   UNL     1      -4.720  -0.432   1.591  1.00  0.00    -0.507 OA
ATOM     13  H   UNL     1      -4.970  -1.045   2.254  1.00  0.00     0.293 HD
ENDBRANCH   6  12
ENDBRANCH   1   3
BRANCH   2  14
ATOM     14  C   UNL     1       1.468  -0.265  -0.229  1.00  0.00     0.087 A 
ATOM     15  C   UNL     1       1.216   0.384   0.971  1.00  0.00     0.034 A 
ATOM     16  C   UNL     1       2.775  -0.543  -0.521  1.00  0.00     0.044 A 
ATOM     17  C   UNL     1       2.255   0.863   1.758  1.00  0.00     0.049 A 
ATOM     18  C   UNL     1       3.784   0.153   0.132  1.00  0.00     0.041 A 
ATOM     19  C   UNL     1       3.511   1.008   1.180  1.00  0.00     0.124 A 
BRANCH  18  20
ATOM     20  C   UNL     1       5.095   0.258  -0.512  1.00  0.00     0.075 C 
ATOM     21  O   UNL     1       5.124   0.958  -1.569  1.00  0.00    -0.545 OA
ATOM     22  O   UNL     1       6.000  -0.807  -0.485  1.00  0.00    -0.545 OA
ENDBRANCH  18  20
BRANCH  19  23
ATOM     23  O   UNL     1       4.316   2.125   1.425  1.00  0.00    -0.507 OA
ATOM     24  H   UNL     1       4.119   2.697   2.141  1.00  0.00     0.293 HD
ENDBRANCH  19  23
ENDBRANCH   2  14
TORSDOF 6
