REMARK SMILES CC1(C)S[C@@H]2[C@H](NC(=O)[C@H]([NH3+])c3ccccc3)C(=O)N2[C@H]1C(=O)[O-]
REMARK SMILES IDX 7 1 8 2 9 3 6 5 1 6 2 7 3 8 4 9 21 10 5 11 20 12 18 13 19 14
REMARK SMILES IDX 22 15 23 16 24 17 10 18 11 19 12 23 13 24 17 25 14 26 16 27
REMARK SMILES IDX 15 28
REMARK H PARENT 7 4 11 20 11 21 11 22
REMARK Flexibility Score: inf
ROOT
ATOM      1  N   UNL     1       0.297   0.222   0.442  1.00  0.00    -0.336 N 
ATOM      2  C   UNL     1       1.635   0.283   0.002  1.00  0.00     0.283 C 
ATOM      3  O   UNL     1       1.889   0.868  -1.098  1.00  0.00    -0.268 OA
ATOM      4  H   UNL     1      -0.078  -0.500   0.997  1.00  0.00     0.164 HD
ENDROOT
BRANCH   1   5
ATOM      5  C   UNL     1      -0.518   1.471  -0.077  1.00  0.00     0.205 C 
ATOM      6  C   UNL     1      -3.446  -1.609  -0.898  1.00  0.00     0.025 C 
ATOM      7  C   UNL     1      -3.186  -1.213  -0.893  1.00  0.00     0.038 C 
ATOM      8  C   UNL     1      -3.738  -0.596  -2.066  1.00  0.00     0.025 C 
ATOM      9  S   UNL     1      -1.413  -1.176  -0.624  1.00  0.00    -0.125 SA
ATOM     10  C   UNL     1      -3.469  -0.340   0.467  1.00  0.00     0.148 C 
ATOM     11  C   UNL     1      -1.670   0.674  -1.008  1.00  0.00     0.176 C 
ATOM     12  N   UNL     1      -2.602   0.920   0.129  1.00  0.00    -0.317 N 
ATOM     13  C   UNL     1      -1.627   1.399   1.079  1.00  0.00     0.249 C 
ATOM     14  O   UNL     1      -1.631   2.339   1.935  1.00  0.00    -0.272 OA
BRANCH  10  15
ATOM     15  C   UNL     1      -4.838   0.313  -0.119  1.00  0.00     0.065 C 
ATOM     16  O   UNL     1      -5.767  -0.516   0.139  1.00  0.00    -0.548 OA
ATOM     17  O   UNL     1      -5.103   1.603   0.317  1.00  0.00    -0.548 OA
ENDBRANCH  10  15
ENDBRANCH   1   5
BRANCH   2  18
ATOM     18  C   UNL     1       2.416  -1.135  -0.104  1.00  0.00     0.302 C 
BRANCH  18  19
ATOM     19  N   UNL     1       1.955  -1.598   1.338  1.00  0.00    -0.343 N 
ATOM     20  H   UNL     1       2.087  -0.833   1.999  1.00  0.00     0.345 HD
ATOM     21  H   UNL     1       2.512  -2.401   1.631  1.00  0.00     0.345 HD
ATOM     22  H   UNL     1       0.970  -1.859   1.312  1.00  0.00     0.345 HD
ENDBRANCH  18  19
BRANCH  18  23
ATOM     23  C   UNL     1       3.779  -0.484   0.490  1.00  0.00     0.019 A 
ATOM     24  C   UNL     1       4.274   0.565  -0.272  1.00  0.00     0.010 A 
ATOM     25  C   UNL     1       4.654  -1.481   0.894  1.00  0.00     0.010 A 
ATOM     26  C   UNL     1       5.610   0.898  -0.153  1.00  0.00     0.001 A 
ATOM     27  C   UNL     1       6.010  -1.260   0.693  1.00  0.00     0.001 A 
ATOM     28  C   UNL     1       6.489  -0.146   0.059  1.00  0.00     0.000 A 
ENDBRANCH  18  23
ENDBRANCH   2  18
TORSDOF 5
