REMARK SMILES C[C@@H](C(=O)[O-])c1cccc(Oc2ccccc2)c1
REMARK SMILES IDX 6 1 7 2 8 3 9 4 10 5 18 6 2 7 1 8 3 9 4 10 5 11 11 12 12 13
REMARK SMILES IDX 13 14 17 15 14 16 16 17 15 18
REMARK H PARENT
REMARK Flexibility Score: inf
ROOT
ATOM      1  C   UNL     1      -1.902  -0.491   0.332  1.00  0.00    -0.036 A 
ATOM      2  C   UNL     1      -1.941  -1.729   0.948  1.00  0.00     0.004 A 
ATOM      3  C   UNL     1      -0.847  -2.566   0.793  1.00  0.00     0.004 A 
ATOM      4  C   UNL     1       0.195  -2.171  -0.013  1.00  0.00     0.047 A 
ATOM      5  C   UNL     1       0.114  -1.004  -0.725  1.00  0.00     0.127 A 
ATOM      6  C   UNL     1      -0.878  -0.084  -0.397  1.00  0.00     0.051 A 
ENDROOT
BRANCH   1   7
ATOM      7  C   UNL     1      -2.792   0.551   1.214  1.00  0.00     0.062 C 
ATOM      8  C   UNL     1      -1.726   1.831   1.071  1.00  0.00     0.019 C 
BRANCH   7   9
ATOM      9  C   UNL     1      -3.637   1.027  -0.110  1.00  0.00     0.049 C 
ATOM     10  O   UNL     1      -4.506   0.137  -0.370  1.00  0.00    -0.550 OA
ATOM     11  O   UNL     1      -4.108   2.325  -0.004  1.00  0.00    -0.550 OA
ENDBRANCH   7   9
ENDBRANCH   1   7
BRANCH   5  12
ATOM     12  O   UNL     1       1.288  -0.482  -1.279  1.00  0.00    -0.457 OA
BRANCH  12  13
ATOM     13  C   UNL     1       2.287  -0.120  -0.383  1.00  0.00     0.127 A 
ATOM     14  C   UNL     1       3.455  -0.842  -0.363  1.00  0.00     0.047 A 
ATOM     15  C   UNL     1       2.266   1.069   0.294  1.00  0.00     0.047 A 
ATOM     16  C   UNL     1       4.641  -0.210  -0.064  1.00  0.00     0.004 A 
ATOM     17  C   UNL     1       3.440   1.635   0.734  1.00  0.00     0.004 A 
ATOM     18  C   UNL     1       4.651   1.124   0.283  1.00  0.00     0.000 A 
ENDBRANCH  12  13
ENDBRANCH   5  12
TORSDOF 4
